38
Azulene_H12_Int2_Sub15.log	Energy: -668152.8523564
C         -0.44852        0.14299       -0.27439
C         -0.95897        1.29687        0.30680
C         -1.13481       -0.87116       -0.97180
C         -2.28722        1.80940        0.36449
H         -0.21060        1.96019        0.75771
C         -2.59146       -0.93904       -1.20103
C         -0.58461       -2.02395       -1.55936
C         -3.45252        1.18620       -0.13385
N         -2.41102        3.01652        0.98289
C         -3.56303       -0.01981       -0.81140
C         -2.84337       -2.13409       -1.90962
C         -1.62582       -2.78362       -2.12750
H          0.47632       -2.27078       -1.58270
H         -4.38986        1.72057        0.02482
H         -4.58574       -0.29180       -1.09683
H         -3.82913       -2.47157       -2.23159
H         -1.49576       -3.72582       -2.66194
O          1.24100       -1.89788        0.92253
C          0.37428       -2.26391        1.71379
O         -0.60745       -1.51138        2.12764
C          0.36223       -3.65041        2.25644
H          1.36143       -4.09271        2.18279
H         -0.00743       -3.66206        3.28933
H         -0.33536       -4.23810        1.63837
H         -0.62584       -0.67198        1.61108
Pd         1.47964       -0.05705        0.00731
O          3.66194        0.45073       -0.01280
C          3.30919        1.51576       -0.56593
O          2.06489        1.73499       -0.77362
C          4.30240        2.53802       -1.02452
H          3.91861        3.55069       -0.84290
H          5.26444        2.38741       -0.52030
H          4.44723        2.42655       -2.11007
H         -1.55203        3.45210        1.28588
C         -3.62887        3.75167        1.15464
H         -3.40572        4.69150        1.67578
H         -4.36652        3.19868        1.76214
H         -4.10671        4.00466        0.19139
