38
Azulene_H8_deriv1_Int2_Sub23.log	Energy: -956474.8021365
C          0.04473        0.06059       -0.21786
C          0.86001       -0.94749       -0.75606
C          0.37459        1.30449        0.30492
C          2.24764       -0.95361       -0.84271
H          0.36349       -1.83682       -1.14885
C          1.63973        1.92213        0.46515
H         -0.48274        1.91811        0.58697
C          3.17601        0.00975       -0.42719
Cl         2.90198       -2.41047       -1.55441
C          2.89898        1.32406        0.17922
N          1.65354        3.18796        0.94965
C          4.58088       -0.11189       -0.52458
C          4.14619        1.91990        0.41890
H          5.09943       -0.97487       -0.93584
C          5.16143        1.04353       -0.00787
H          4.33183        2.89220        0.87744
H          6.23194        1.24009        0.06007
O         -1.56569       -2.25398        0.44090
C         -0.91408       -2.57200        1.43555
O         -0.25989       -1.71763        2.17401
C         -0.79071       -3.99053        1.86697
H         -1.58460       -4.59295        1.41334
H          0.18793       -4.36205        1.52349
H         -0.80958       -4.06280        2.96193
H         -0.27801       -0.83725        1.73376
Pd        -1.88227       -0.30520       -0.19456
O         -4.08075        0.04697       -0.39272
C         -3.77132        1.21619       -0.71047
O         -2.53466        1.55263       -0.72825
C         -4.79754        2.23201       -1.10201
H         -4.51957        3.22246       -0.71817
H         -4.82843        2.29615       -2.20057
H         -5.78733        1.93361       -0.73645
H          2.55675        3.63102        1.01689
C          0.50118        3.97601        1.28435
H          0.83657        4.97251        1.59931
H         -0.07679        3.53782        2.11630
H         -0.18324        4.10125        0.42808
