37
Azulene_H8_Int2_Sub24.log	Energy: -680600.3512363
C          0.13174       -0.27088       -0.01632
C         -0.72528        0.40627       -0.89721
C         -0.18584       -1.17311        1.01339
C         -2.12125        0.34887       -0.96766
H         -0.24565        1.06149       -1.63073
C         -1.44473       -1.60173        1.44790
H          0.66824       -1.62020        1.53137
C         -3.00686       -0.35686       -0.17064
H         -2.59096        0.95126       -1.75307
C         -2.70413       -1.26504        0.96828
H         -1.43843       -2.30836        2.28573
C         -4.41264       -0.34199       -0.29765
C         -3.93296       -1.73572        1.45277
O         -5.03208        0.38845       -1.24193
C         -4.97137       -1.17675        0.68707
H         -4.05576       -2.42706        2.28604
H         -6.03383       -1.36688        0.83664
O          1.75354        2.11897       -0.25576
C          1.15420        2.76550        0.60217
O          0.48261        2.22418        1.58160
C          1.13202        4.25439        0.58623
H          1.85675        4.63417       -0.14100
H          0.11885        4.58612        0.31192
H          1.34317        4.64297        1.59177
H          0.44605        1.24900        1.44637
Pd         2.04524        0.06271       -0.23437
O          4.23033       -0.35912       -0.46105
C          3.91078       -1.56424       -0.35482
O          2.68059       -1.87295       -0.17761
C          4.91819       -2.66619       -0.45537
H          4.69537       -3.45190        0.27873
H          4.84909       -3.11786       -1.45683
H          5.93070       -2.27106       -0.31073
C         -6.42883        0.31670       -1.28588
H         -6.77776       -0.71422       -1.47608
H         -6.88509        0.67422       -0.34510
H         -6.75987        0.96208       -2.10960
