33
Azulene_H16_Int2_Sub26.log	Energy: -897107.9456050
C          0.29116       -0.13147        0.13636
C         -0.47250       -0.86115       -0.80165
C         -0.58641        0.51055        1.04266
C         -1.83502       -0.69136       -0.50217
H         -0.07662       -1.48049       -1.60639
C         -1.90638        0.19255        0.69308
H         -0.29638        1.14204        1.88288
C         -2.90097       -1.25390       -1.19696
C         -3.05696        0.62875        1.34707
C         -4.27160       -1.13998       -0.97026
H         -2.62215       -1.88163       -2.04994
C         -4.39438        0.36795        1.06427
H         -2.88356        1.27296        2.21573
C         -4.92284       -0.41772        0.03321
H         -4.92645       -1.67997       -1.65700
H         -5.13220        0.82722        1.72513
Cl        -6.66273       -0.51016       -0.00199
O          2.20620        2.00644        0.28159
C          1.57257        2.77815       -0.43858
O          0.64703        2.40080       -1.27475
C          1.81465        4.24801       -0.40303
H          2.69504        4.47072        0.20814
H          1.94355        4.62682       -1.42643
H          0.92735        4.74341        0.01932
H          0.45858        1.43946       -1.13603
Pd         2.22656       -0.05788        0.16438
O          4.34402       -0.74721        0.16209
C          3.86705       -1.90093        0.06650
O          2.59666       -2.04866        0.00780
C          4.73290       -3.12080        0.04707
H          5.76598       -2.84935       -0.20071
H          4.71401       -3.58354        1.04570
H          4.33821       -3.85548       -0.66722
