49
Azulene_H11_Int2_Sub19.log	Energy: -755933.8164465
C         -0.74529        0.12018       -0.24759
C          0.15686       -0.83718        0.23866
C         -0.40534        1.31563       -0.88820
C          1.54978       -0.83012        0.28068
H         -0.30490       -1.74497        0.64203
C          0.85150        1.85480       -1.15227
H         -1.24021        1.93506       -1.23731
C          2.49653        0.10998       -0.16110
H          1.97620       -1.72750        0.73815
C          2.20448        1.31957       -0.80983
C          1.04819        3.08306       -1.80958
C          3.94819       -0.25551        0.07838
C          3.12697        2.27289       -1.28586
C          2.42315        3.32716       -1.88652
H          0.24981        3.72053       -2.18923
H          4.21064        2.21424       -1.21291
H          2.88464        4.20394       -2.34396
O         -3.18944        1.58706        0.40290
C         -2.70925        2.22454        1.34040
O         -1.66303        1.83334        2.01395
C         -3.28226        3.52712        1.77770
H         -4.24563        3.69916        1.28720
H         -3.39029        3.53909        2.87089
H         -2.57660        4.32818        1.50914
H         -1.28491        1.03917        1.56265
Pd        -2.64776       -0.35248       -0.10279
O         -4.49125       -1.61828       -0.13892
C         -3.71990       -2.56405       -0.41201
O         -2.46048       -2.34058       -0.49190
C         -4.22051       -3.94844       -0.67913
H         -4.24499       -4.11104       -1.76761
H         -3.53598       -4.69042       -0.24719
H         -5.23392       -4.07032       -0.27852
H          4.57172        0.57585       -0.27907
C          4.37350       -1.49401       -0.72291
H          4.15855       -1.33103       -1.79107
H          3.76581       -2.36200       -0.41220
C          5.84998       -1.80993       -0.51126
H          6.12535       -2.71851       -1.07078
H          6.46013       -0.99052       -0.93282
C          6.18206       -1.97243        0.96805
H          7.25898       -2.16423        1.10189
H          5.65726       -2.86241        1.36088
C          5.75592       -0.74773        1.77036
H          6.36011        0.12213        1.45459
H          5.96595       -0.89620        2.84199
C          4.27819       -0.43156        1.56668
H          3.67088       -1.25094        1.98931
H          3.99549        0.48070        2.11636
