33
Azulene_H8_Int2_Sub18.log	Energy: -897107.5249854
C          0.08120       -0.28682       -0.01090
C         -0.79686        0.45028       -0.82595
C         -0.22336       -1.27912        0.93176
C         -2.18695        0.38713       -0.89214
H         -0.33141        1.16826       -1.50794
C         -1.47511       -1.75788        1.33329
H          0.63699       -1.76179        1.40558
C         -3.06794       -0.39421       -0.15213
H         -2.66688        1.05051       -1.62038
C         -2.74267       -1.39429        0.89647
H         -1.45508       -2.53631        2.10440
C         -4.46919       -0.39264       -0.25157
C         -3.96209       -1.92603        1.35708
Cl        -5.38332        0.59288       -1.32557
C         -5.00978       -1.31539        0.65926
H         -4.06222       -2.68944        2.12796
H         -6.07447       -1.51105        0.78524
O          1.68701        2.12601       -0.22380
C          1.12338        2.74821        0.67605
O          0.52247        2.17280        1.68202
C          1.06428        4.23515        0.68448
H          1.73340        4.64300       -0.07984
H          0.02832        4.54510        0.47804
H          1.32747        4.61484        1.68110
H          0.51687        1.20008        1.53114
Pd         1.99257        0.07264       -0.22545
O          4.17393       -0.32007       -0.46396
C          3.87146       -1.53098       -0.37325
O          2.64439       -1.85460       -0.19418
C          4.89046       -2.61854       -0.49498
H          4.67467       -3.42295        0.22062
H          4.82918       -3.04778       -1.50679
H          5.89804       -2.21519       -0.33920
