45
Azulene_H8_deriv1_Int2_Sub20.log	Energy: -995699.9625368
C          0.15189        0.25052       -0.27809
C         -0.38967        1.45225       -0.73014
C         -0.48651       -0.93023        0.11916
C         -1.74288        1.76202       -0.85761
H          0.30180        2.24716       -1.01743
C         -1.83871       -1.28965        0.23451
H          0.22104       -1.72149        0.35753
C         -2.86683        0.98766       -0.56622
Cl        -2.03150        3.38023       -1.45179
C         -2.92207       -0.42575       -0.05520
C         -2.11328       -2.73906        0.71151
C         -4.19125        1.43365       -0.71742
C         -4.29866       -0.71164        0.05953
H         -4.47608        2.42005       -1.07489
C         -5.04919        0.40244       -0.33566
H         -4.73778       -1.64344        0.39818
H         -6.13888        0.45107       -0.34341
O          2.26275        2.05620        0.56578
C          1.70907        2.43293        1.59865
O          0.87400        1.69359        2.27696
C          1.92734        3.79644        2.15193
H          2.82205        4.24442        1.70746
H          1.04806        4.41025        1.90006
H          2.00273        3.75740        3.24638
H          0.69834        0.87096        1.76558
Pd         2.10839        0.13837       -0.21049
O          4.15707       -0.72220       -0.42524
C          3.58193       -1.75455       -0.83526
O          2.30139       -1.77378       -0.89006
C          4.33781       -2.96185       -1.29060
H          3.83615       -3.87539       -0.94448
H          4.34244       -2.98181       -2.39116
H          5.37218       -2.92265       -0.92919
C         -0.83188       -3.54782        0.96041
H         -1.11646       -4.56302        1.27519
H         -0.20882       -3.64297        0.05899
H         -0.21388       -3.11965        1.76395
C         -2.86382       -2.72195        2.05563
H         -3.82196       -2.19319        2.02011
H         -3.05366       -3.75479        2.38751
H         -2.24795       -2.23087        2.82497
C         -2.88588       -3.51043       -0.37432
H         -3.08027       -4.53861       -0.03091
H         -3.84336       -3.05212       -0.64273
H         -2.28245       -3.57073       -1.29293
