33
Azulene_H8_Int2_Sub26.log	Energy: -897108.6990243
C         -0.18812       -0.12942        0.16107
C          0.49320        0.66808        1.09558
C          0.35121       -1.01435       -0.78501
C          1.86446        0.78992        1.31467
H         -0.13525        1.27673        1.75333
C          1.68979       -1.29165       -1.06847
H         -0.37846       -1.58121       -1.37162
C          2.92756        0.18351        0.64738
H          2.15310        1.47005        2.12397
C          2.84510       -0.78497       -0.47821
H          1.85839       -2.01822       -1.87104
C          4.28806        0.38425        0.92137
C          4.16111       -1.12169       -0.83161
H          4.70730        1.03214        1.68880
C          5.01614       -0.40808        0.02008
H          4.46565       -1.81113       -1.61664
Cl         6.72881       -0.49285       -0.03021
O         -2.15145        2.01476        0.32654
C         -1.60423        2.76909       -0.47729
O         -0.81719        2.35424       -1.43241
C         -1.78629        4.24504       -0.41857
H         -2.56867        4.49967        0.30337
H         -0.83298        4.70604       -0.11835
H         -2.03481        4.62943       -1.41741
H         -0.67206        1.38652       -1.32137
Pd        -2.14471       -0.05683        0.19100
O         -4.25655       -0.76984        0.17745
C         -3.77095       -1.91681        0.05613
O         -2.49796       -2.05029       -0.00870
C         -4.62475       -3.14361        0.01228
H         -4.22469       -3.85867       -0.71874
H         -4.59790       -3.62778        1.00052
H         -5.66127       -2.87757       -0.22653
