38
Azulene_H11_Int2_Sub23.log	Energy: -668151.0939745
C          0.11838       -0.12561       -0.11281
C          0.62274       -1.26815        0.53569
C          0.88032        0.82439       -0.79336
C          1.92027       -1.71491        0.73872
H         -0.14401       -1.93608        0.94325
C          2.26590        0.90962       -0.94002
H          0.32786        1.63664       -1.28075
C          3.16127       -1.16269        0.33654
H          1.98485       -2.65326        1.29167
C          3.32450        0.03083       -0.41846
C          2.90976        1.95478       -1.64727
N          4.29210       -1.82492        0.68958
C          4.54482        0.58698       -0.82743
C          4.28494        1.75525       -1.57486
H          2.39183        2.76871       -2.15451
H          5.54663        0.20857       -0.61826
H          5.04771        2.39542       -2.02025
O         -1.80244        2.07526        0.11760
C         -1.22002        2.64286        1.04230
O         -0.37630        2.04467        1.83564
C         -1.42234        4.09155        1.32210
H         -2.26324        4.47554        0.73576
H         -1.59101        4.24370        2.39695
H         -0.50135        4.63208        1.05504
H         -0.20578        1.13727        1.47406
Pd        -1.84397        0.01922       -0.16872
O         -3.98403       -0.63192       -0.33310
C         -3.52131       -1.78889       -0.43367
O         -2.25358       -1.96530       -0.37436
C         -4.40009       -2.98083       -0.65227
H         -4.37114       -3.25002       -1.71930
H         -4.02416       -3.84057       -0.08192
H         -5.43434       -2.74745       -0.37252
H          5.15893       -1.43302        0.35545
C          4.36275       -3.04950        1.43259
H          5.41801       -3.32195        1.56310
H          3.86108       -3.88681        0.91618
H          3.91560       -2.95435        2.43706
