42
Azulene_H16_Int2_Sub29.log	Energy: -682736.7521406
C          0.61718       -0.16878        0.16160
C         -0.20671       -0.57944       -0.91320
C         -0.20128        0.21128        1.24882
C         -1.55205       -0.46992       -0.51380
H          0.13359       -0.95942       -1.87680
C         -1.54514        0.03690        0.88140
H          0.14105        0.57495        2.21772
C         -2.66706       -0.78387       -1.28521
C         -2.65882        0.29857        1.67684
C         -4.02130       -0.70324       -0.96573
H         -2.44274       -1.14968       -2.29337
C         -4.01404        0.15956        1.38524
H         -2.43155        0.66636        2.68369
C         -4.65009       -0.28547        0.21594
H         -4.69519       -1.01805       -1.76811
H         -4.69022        0.43870        2.19940
C         -6.17246       -0.31969        0.23561
O          2.49815        1.98354        0.25643
C          1.75727        2.79537       -0.29752
O          0.70553        2.47966       -0.99653
C          2.01270        4.26164       -0.19825
H          2.98800        4.44444        0.26408
H          1.96177        4.71610       -1.19731
H          1.21750        4.71877        0.40995
H          0.52304        1.50623       -0.92491
Pd         2.54836       -0.07765        0.10776
O          4.68392       -0.72918        0.00031
C          4.22203       -1.89016       -0.07573
O          2.95420       -2.06294       -0.07095
C          5.10753       -3.09517       -0.14672
H          6.13101       -2.80016       -0.40687
H          5.11353       -3.58962        0.83665
H          4.71033       -3.81400       -0.87590
H         -6.48286        0.03942        1.23062
C         -6.77683        0.62959       -0.79887
H         -7.87426        0.64864       -0.71030
H         -6.40435        1.65611       -0.66470
H         -6.53306        0.31647       -1.82628
C         -6.71112       -1.74148        0.07732
H         -6.29149       -2.41455        0.83969
H         -7.80776       -1.75186        0.17648
H         -6.46390       -2.15986       -0.91104
