33
Azulene_H16_deriv1_Int2_Sub26.log	Energy: -1185428.7313048
C          0.38963       -0.11287        0.12539
C         -0.42599       -1.14683       -0.37198
C         -0.43379        0.91404        0.65151
C         -1.77353       -0.79525       -0.17406
H         -0.08047       -2.08243       -0.81058
C         -1.77225        0.54332        0.49068
H         -0.09741        1.83803        1.11796
C         -2.85131       -1.58906       -0.54382
C         -2.90479        1.27080        0.86390
C         -4.21407       -1.32890       -0.39133
H         -2.59988       -2.54317       -1.01509
C         -4.25417        0.93655        0.71778
Cl        -2.62170        2.81491        1.61620
C         -4.82670       -0.20647        0.16787
Cl        -5.29298       -2.56865       -0.97816
H         -4.95752        1.68256        1.09294
H         -5.91903       -0.23112        0.17342
O          2.41581        1.87034       -0.31397
C          1.86215        2.41401       -1.26993
O          1.00892        1.81046       -2.05005
C          2.11375        3.84194       -1.60739
H          2.98579        4.21129       -1.05823
H          2.25258        3.95366       -2.69109
H          1.22382        4.42645       -1.32692
H          0.79845        0.92778       -1.66189
Pd         2.32575       -0.14940        0.11796
O          4.39407       -0.94586        0.29175
C          3.84830       -2.05204        0.50635
O          2.56965       -2.12859        0.49066
C          4.63824       -3.28489        0.80992
H          5.68014       -3.15566        0.49368
H          4.61331       -3.46158        1.89617
H          4.18471       -4.15692        0.32048
