33
Azulene_H16_deriv1_Int2_Sub2.log	Energy: -1185429.4942433
C          0.28706       -0.35472        0.14341
C         -0.78191        0.30658       -0.50807
C         -0.27144       -1.36732        0.95255
C         -2.01019       -0.25973       -0.13282
Cl        -0.62206        1.63200       -1.59998
C         -1.67020       -1.35258        0.82258
H          0.29473       -2.07222        1.56071
C         -3.26096        0.14586       -0.57960
C         -2.56200       -2.20381        1.46182
C         -4.50865       -0.37515       -0.23878
H         -3.26107        0.97874       -1.28851
C         -3.95644       -2.23703        1.37125
H         -2.10580       -2.94744        2.12350
C         -4.81409       -1.43305        0.62557
Cl        -5.87951        0.39632       -0.99752
H         -4.45150       -3.00479        1.97192
H         -5.88059       -1.65206        0.72108
O          2.04169        1.98496        0.24517
C          1.32244        2.60013        1.03073
O          0.44978        2.03313        1.81594
C          1.37402        4.08477        1.12200
H          2.32982        4.45274        0.73423
H          0.55783        4.48030        0.49671
H          1.20315        4.41735        2.15343
H          0.37861        1.07681        1.58153
Pd         2.19576       -0.04551       -0.05037
O          4.33331       -0.48672       -0.38197
C          3.97725       -1.68281       -0.49409
O          2.73858       -1.97534       -0.35250
C          4.94509       -2.77483       -0.81752
H          5.96798       -2.45610       -0.58394
H          4.68344       -3.68981       -0.27001
H          4.87832       -2.99745       -1.89356
