38
Azulene_H8_deriv1_Int2_Sub31.log	Energy: -956463.7314512
C          0.39681       -0.39754        0.09659
C         -0.52339        0.36353       -0.64227
C          0.16001       -1.43370        1.00047
C         -1.92324        0.28753       -0.67261
H         -0.10440        1.13040       -1.29726
C         -1.08724       -1.94333        1.39438
H          1.03953       -1.92495        1.42591
C         -2.80924       -0.53049        0.02482
Cl        -2.59662        1.47226       -1.79172
C         -2.36238       -1.57959        1.00618
H         -1.05235       -2.75965        2.12456
C         -4.23395       -0.59374        0.00022
C         -3.52622       -2.19405        1.49871
N         -5.11128        0.15838       -0.71943
C         -4.63943       -1.61317        0.90289
H         -3.53503       -3.00225        2.22953
H         -5.67485       -1.89334        1.09171
O          1.88370        2.07668        0.13456
C          1.27721        2.55885        1.09047
O          0.69073        1.84730        2.01340
C          1.14034        4.03136        1.26361
H          1.85485        4.55434        0.61967
H          0.11474        4.31577        0.98074
H          1.28105        4.30503        2.31754
H          0.71158        0.89650        1.75406
Pd         2.28050        0.06118       -0.15768
O          4.46417       -0.20106       -0.53314
C          4.21038       -1.42513       -0.59719
O          3.00696       -1.82426       -0.41882
C          5.26518       -2.44082       -0.90430
H          5.11218       -3.34252       -0.29659
H          5.17660       -2.73319       -1.96185
H          6.26229       -2.01784       -0.73356
H         -4.72893        0.78545       -1.40969
C         -6.52007       -0.09094       -0.71430
H         -7.01657        0.63021       -1.37697
H         -6.95645        0.03112        0.29342
H         -6.77884       -1.10834       -1.06656
