49
Azulene_H16_Int2_Sub11.log	Energy: -755935.9635893
C          0.86339       -0.49486       -0.53942
C         -0.36474        0.11497       -0.20201
C          0.60107       -1.70496       -1.21331
C         -1.42985       -0.69635       -0.66051
H         -0.45653        1.08088        0.29074
C         -0.78777       -1.87284       -1.31888
H          1.34202       -2.40507       -1.59918
C         -2.80097       -0.43981       -0.51434
C         -1.39435       -2.97029       -1.93412
C         -3.84474       -1.26640       -0.97199
C         -3.23159        0.82502        0.20229
C         -2.74487       -3.24945       -2.08681
H         -0.69814       -3.70547       -2.35228
C         -3.82670       -2.47879       -1.65095
H         -4.84959       -0.89151       -0.75816
H         -2.99346       -4.17763       -2.60875
H         -4.81465       -2.89181       -1.87926
O          2.85474       -1.32508        1.33256
C          2.05720       -1.83499        2.11912
O          0.77668       -1.60309        2.13246
C          2.51608       -2.80626        3.15457
H          3.60994       -2.83374        3.18823
H          2.10108       -2.52971        4.13360
H          2.12351       -3.80312        2.90278
H          0.51219       -1.04000        1.35637
Pd         2.60472        0.18895       -0.05289
O          4.42670        1.48723       -0.02241
C          3.84567        2.15166       -0.90986
O          2.67780        1.79860       -1.29571
C          4.48416        3.33967       -1.55987
H          5.34072        3.68264       -0.96750
H          4.83210        3.05092       -2.56341
H          3.74724        4.14447       -1.68426
H         -2.32714        1.38102        0.48468
C         -3.98115        0.52695        1.50828
H         -3.35987       -0.11991        2.14865
H         -4.90007       -0.04417        1.28714
C         -4.35120        1.81329        2.23845
H         -4.91327        1.57784        3.15668
H         -3.42672        2.32383        2.56407
C         -5.15499        2.75260        1.34583
H         -5.38162        3.68962        1.87962
H         -6.12914        2.28483        1.11310
C         -4.41859        3.04672        0.04342
H         -3.49682        3.61398        0.26636
H         -5.02864        3.69382       -0.60727
C         -4.05026        1.76396       -0.69401
H         -4.97412        1.25587       -1.02198
H         -3.47806        1.99031       -1.60785
