36
Azulene_H18_Int2_Sub14.log	Energy: -633435.9153063
C          0.45833        0.22338       -0.72593
C          1.65640       -0.29277       -0.16779
C          0.79031        0.85737       -1.95472
C          2.75131        0.06809       -1.12193
C          1.80314       -0.99620        1.04851
C          2.15653        0.76363       -2.19494
H          0.06766        1.34511       -2.61170
C          4.11418       -0.18517       -1.04467
C          3.00736       -1.47934        1.58123
C          0.57378       -1.28594        1.86087
H          2.69774        1.15943       -3.05455
C          4.83198       -0.85085       -0.05115
H          4.69933        0.19186       -1.89079
C          4.32070       -1.42035        1.10902
H          2.89890       -1.99952        2.53720
H          5.91136       -0.93560       -0.20230
H          5.05926       -1.90010        1.75968
O         -1.60561        2.07972        0.16349
C         -0.78722        2.86659        0.64304
O          0.46610        2.58471        0.83623
C         -1.18896        4.24681        1.04142
H         -0.68498        4.96929        0.38206
H         -2.27486        4.36230        0.96464
H         -0.84724        4.44829        2.06635
H          0.65975        1.68964        0.42714
Pd        -1.42121        0.05417       -0.20027
O         -3.42792       -0.85229        0.13772
C         -2.88900       -1.94116       -0.16293
O         -1.64067       -1.96338       -0.44888
C         -3.65834       -3.22366       -0.21519
H         -3.74802       -3.54485       -1.26382
H         -3.11092       -4.01028        0.32231
H         -4.65838       -3.08677        0.21256
H         -0.09851       -1.96015        1.30756
H         -0.00315       -0.36734        2.05439
H          0.82954       -1.74592        2.82415
