36
Azulene_H18_Int2_Sub6.log	Energy: -633439.6670348
C         -0.49087        0.35029        0.54010
C         -1.66053       -0.25312        0.02306
C         -0.88531        1.26327        1.56082
C         -2.81850        0.34771        0.74410
C         -1.70384       -1.23990       -0.96099
C         -2.28414        1.25883        1.67067
C          0.04077        2.10229        2.37507
C         -4.16963        0.08398        0.54989
C         -2.81153       -1.87195       -1.52379
H         -0.72318       -1.56526       -1.32327
H         -2.86948        1.86400        2.36446
C         -4.77432       -0.80804       -0.33922
H         -4.85107        0.65552        1.18995
C         -4.16751       -1.67155       -1.25067
H         -2.58882       -2.62746       -2.28255
H         -5.86717       -0.83962       -0.30982
H         -4.85631       -2.28912       -1.83631
O          1.87793        1.75572       -0.47024
C          1.20011        2.58424       -1.08218
O         -0.07522        2.46351       -1.29310
C          1.81493        3.82711       -1.63167
H          1.37843        4.69964       -1.12332
H          2.89985        3.80860       -1.48713
H          1.56790        3.91587       -2.69908
H         -0.40412        1.65481       -0.79602
Pd         1.34665       -0.16004        0.08565
O          3.14071       -1.46626       -0.19800
C          2.39859       -2.39645        0.18820
O          1.17733       -2.14327        0.48134
C          2.89388       -3.79995        0.34435
H          3.02714       -4.01248        1.41604
H          2.14880       -4.50828       -0.04232
H          3.85435       -3.92409       -0.16964
H          0.40339        2.97108        1.79908
H          0.93032        1.52987        2.67787
H         -0.45451        2.49074        3.27583
