37
Azulene_H16_deriv1_Int2_Sub24.log	Energy: -968920.0321931
C          0.48445        0.14359        0.42897
C         -0.51924       -0.47547       -0.35152
C         -0.13083        0.94177        1.41774
C         -1.77710       -0.08128        0.14171
H         -0.36292       -1.15812       -1.18443
C         -1.52437        0.83730        1.28336
H          0.37652        1.54459        2.17086
C         -2.99475       -0.52187       -0.38489
C         -2.46608        1.48607        2.07856
C         -4.28473       -0.14321        0.05397
O         -2.91479       -1.37291       -1.43294
C         -3.85294        1.43505        1.98646
H         -2.05575        2.11661        2.87405
C         -4.64498        0.71791        1.08864
Cl        -5.61725       -0.83373       -0.83423
H         -4.40698        2.03471        2.71331
H         -5.72463        0.83805        1.20810
O          2.56174        1.96272       -0.32156
C          1.83967        2.66938       -1.02491
O          0.68512        2.30110       -1.50087
C          2.24291        4.05696       -1.39287
H          3.27588        4.24461       -1.08301
H          2.12738        4.20117       -2.47606
H          1.56544        4.76693       -0.89484
H          0.42466        1.42154       -1.12589
Pd         2.38568       -0.04511        0.13054
O          4.40214       -0.98346       -0.02462
C          3.82409       -2.04822        0.29063
O          2.55965       -2.03894        0.48925
C          4.56795       -3.33438        0.46992
H          5.56447       -3.26325        0.01819
H          4.67387       -3.53588        1.54683
H          3.99848       -4.16513        0.03207
C         -2.95718       -2.75085       -1.11183
H         -2.13252       -3.01982       -0.43069
H         -3.92127       -3.02444       -0.65271
H         -2.84267       -3.29765       -2.05619
