36
Azulene_H12_Int2_Sub30.log	Energy: -633436.1302471
C         -0.45419       -0.44212        0.03020
C         -0.76827       -1.49975       -0.83463
C         -1.33782        0.24954        0.87283
C         -1.99717       -2.10948       -1.11533
H          0.08345       -1.93528       -1.36716
C         -2.81215        0.02819        0.99055
C         -1.02423        1.29099        1.75984
C         -3.28461       -1.86398       -0.63018
H         -1.93085       -2.92156       -1.84767
C         -3.61233       -0.88653        0.32192
C         -3.28749        0.95752        1.94018
C         -2.20596        1.70945        2.40194
H         -0.02444        1.68562        1.93420
C         -4.41982       -2.70815       -1.15228
H         -4.67458       -0.83406        0.59075
H         -4.32754        1.05097        2.25258
H         -2.26167        2.49814        3.15425
O          1.01955        2.04791       -0.43445
C          0.18387        2.50936       -1.20895
O         -0.65928        1.78361       -1.89034
C          0.04578        3.97731       -1.41476
H          0.96045        4.48956       -1.09830
H         -0.19674        4.20051       -2.46143
H         -0.79467        4.32294       -0.79199
H         -0.60004        0.84780       -1.59036
Pd         1.43554        0.06703        0.00043
O          3.65404       -0.16047        0.11810
C          3.42185       -1.36855        0.34799
O          2.20920       -1.77976        0.37062
C          4.51643       -2.34996        0.62646
H          4.30094       -3.30795        0.13477
H          5.48137       -1.94831        0.29511
H          4.55793       -2.53485        1.71080
H         -4.07319       -3.44387       -1.89062
H         -5.19193       -2.08685       -1.63437
H         -4.91460       -3.25965       -0.33649
