33
Azulene_H11_Int2_Sub18.log	Energy: -897105.7955756
C          0.10271       -0.19491       -0.08766
C          0.54873       -1.31699        0.62398
C          0.90338        0.71243       -0.79533
C          1.83933       -1.78417        0.87462
H         -0.24323       -1.94464        1.04628
C          2.28681        0.75927       -0.93056
H          0.37512        1.51386       -1.32496
C          3.06554       -1.25886        0.45684
H          1.90897       -2.69193        1.47781
C          3.31959       -0.14084       -0.34046
C          2.98430        1.73421       -1.67044
Cl         4.45571       -2.14906        1.01012
C          4.56671        0.34592       -0.75329
C          4.35456        1.47861       -1.55849
H          2.51483        2.54278       -2.23026
H          5.52655       -0.09322       -0.49021
H          5.14564        2.06773       -2.02519
O         -1.72145        2.08983       -0.01042
C         -1.16668        2.67510        0.92032
O         -0.43909        2.06706        1.81632
C         -1.26590        4.15003        1.09107
H         -2.02023        4.55858        0.41115
H         -1.50766        4.38931        2.13567
H         -0.28313        4.59501        0.87198
H         -0.33763        1.12401        1.54183
Pd        -1.84979        0.02508       -0.17549
O         -4.00150       -0.53415       -0.33212
C         -3.59578       -1.71707       -0.36235
O         -2.33695       -1.94502       -0.27588
C         -4.52625       -2.87600       -0.52566
H         -4.49962       -3.20443       -1.57602
H         -4.19601       -3.71929        0.09518
H         -5.55088       -2.57967       -0.27157
