36
Azulene_H18_Int2_Sub9.log	Energy: -820173.4515685
C          0.32040        0.10655       -1.02737
C          1.59113       -0.23475       -0.50078
C          0.48520        0.31060       -2.42906
C          2.55018       -0.22353       -1.66680
C          1.97475       -0.52114        0.82971
C          1.80449        0.11944       -2.81155
H         -0.33052        0.57668       -3.10373
C          3.90791       -0.48340       -1.71442
C          3.23752       -0.86334        1.30956
C          0.89839       -0.46707        1.90935
H          2.21705        0.21162       -3.81599
C          4.78334       -0.84282       -0.68277
H          4.35244       -0.40159       -2.71214
C          4.46769       -1.01006        0.65320
H          3.28490       -1.05027        2.38188
H          5.82597       -1.00945       -0.96578
H          5.29825       -1.29640        1.30561
O         -1.65485        2.06261        0.12947
C         -0.81850        2.96389        0.17074
O          0.42267        2.82236       -0.18692
C         -1.17688        4.32501        0.66451
H         -0.79728        5.08834       -0.02826
H         -2.26178        4.40861        0.78513
H         -0.68302        4.48599        1.63493
H          0.56705        1.87593       -0.47072
Pd        -1.52252        0.05656       -0.34026
O         -3.51284       -0.76561        0.11562
C         -3.05404       -1.86611       -0.27418
O         -1.84966       -1.92064       -0.69750
C         -3.86347       -3.12304       -0.23164
H         -3.69618       -3.71109       -1.14398
H         -3.52801       -3.73111        0.62233
H         -4.92710       -2.88662       -0.10879
F          0.29887        0.73307        1.93722
F          1.38492       -0.65977        3.13913
F         -0.03678       -1.39478        1.72314
