37
Azulene_H16_Int2_Sub16.log	Energy: -680605.4707033
C         -0.05606        0.02213       -0.40649
C          0.87557       -0.66666        0.41540
C          0.64870        0.73190       -1.39346
C          2.16821       -0.39492       -0.05208
H          0.63908       -1.32448        1.24922
C          2.03029        0.50108       -1.22088
H          0.21936        1.35832       -2.17541
C          3.35391       -0.90686        0.51094
C          3.03198        1.04329       -2.02189
C          4.66730       -0.66447        0.07572
O          3.12476       -1.69911        1.57106
C          4.41115        0.87794       -1.92243
H          2.67903        1.68182       -2.83895
C          5.11395        0.11753       -0.98724
H          5.45830       -1.15438        0.64419
H          5.01803        1.40183       -2.66552
H          6.20231        0.13327       -1.10460
O         -1.97358        2.03907        0.26901
C         -1.19409        2.69433        0.96014
O         -0.07401        2.23988        1.44330
C         -1.47989        4.11788        1.30266
H         -2.49924        4.38098        1.00243
H         -1.33602        4.27676        2.38029
H         -0.75657        4.76016        0.77780
H          0.11321        1.33667        1.07547
Pd        -1.97434        0.01285       -0.14755
O         -4.07995       -0.74463       -0.02012
C         -3.58826       -1.85938       -0.30663
O         -2.32485       -1.96502       -0.47796
C         -4.43685       -3.08074       -0.48223
H         -5.43774       -2.91150       -0.06776
H         -4.52315       -3.30201       -1.55696
H         -3.95730       -3.94572       -0.00449
C          4.17238       -2.32310        2.26201
H          4.74565       -3.00502        1.61133
H          4.86218       -1.59027        2.71427
H          3.70351       -2.90871        3.06255
