33
Azulene_H18_Int2_Sub2.log	Energy: -897109.9830216
C         -0.48446       -0.34796       -0.33864
C         -1.71810        0.23235        0.05037
C         -0.82445       -1.44598       -1.16452
C         -2.81514       -0.57657       -0.55345
C         -1.85480        1.36979        0.84342
C         -2.20941       -1.59933       -1.29905
Cl         0.32106       -2.49538       -1.90566
C         -4.18826       -0.38731       -0.41378
C         -3.01833        2.00275        1.28220
H         -0.90928        1.83112        1.14451
H         -2.71712       -2.37358       -1.87160
C         -4.87274        0.59709        0.29794
H         -4.81260       -1.11524       -0.94335
C         -4.34863        1.65397        1.04489
H         -2.86550        2.89454        1.89647
H         -5.96407        0.53811        0.25915
H         -5.09245        2.30965        1.50901
O          2.07189       -1.39076        0.66865
C          1.51606       -2.25863        1.34324
O          0.25909       -2.22536        1.67309
C          2.26288       -3.45763        1.81596
H          2.03340       -4.28633        1.12767
H          3.34044       -3.26339        1.79604
H          1.92672       -3.74999        2.81884
H         -0.17468       -1.47473        1.17748
Pd         1.30357        0.39094       -0.00827
O          2.95506        1.85872        0.08404
C          2.12509        2.68643       -0.35629
O          0.92124        2.30329       -0.56970
C          2.49711        4.10044       -0.66786
H          2.62082        4.20149       -1.75697
H          1.69173        4.78076       -0.36053
H          3.44098        4.36224       -0.17508
