38
Azulene_H8_Int2_Sub31.log	Energy: -668151.0932152
C         -0.21279       -0.14887        0.11180
C          0.51951        0.59479        1.04847
C          0.28104       -1.01764       -0.87616
C          1.90087        0.67339        1.23467
H         -0.07198        1.20341        1.74082
C          1.59993       -1.32543       -1.20459
H         -0.47984       -1.54161       -1.46363
C          2.93081        0.05819        0.52407
H          2.22766        1.32241        2.05491
C          2.79127       -0.87445       -0.62945
H          1.72391       -2.03143       -2.03322
C          4.30046        0.20752        0.76833
C          4.08033       -1.23560       -1.02058
H          4.73497        0.82323        1.55406
C          5.00964       -0.57895       -0.17248
H          4.32996       -1.91248       -1.83788
N          6.35685       -0.68822       -0.25743
O         -2.12795        2.04473        0.31978
C         -1.53975        2.79188       -0.46114
O         -0.68750        2.37751       -1.35711
C         -1.74830        4.26688       -0.43871
H         -2.57873        4.52007        0.22804
H         -0.82342        4.74948       -0.08809
H         -1.94027        4.63023       -1.45775
H         -0.51773        1.41493       -1.20918
Pd        -2.16775       -0.03003        0.20600
O         -4.30605       -0.70699        0.25737
C         -3.84027       -1.86065        0.12790
O         -2.57376       -2.02008        0.02868
C         -4.71677       -3.07435        0.11278
H         -4.35381       -3.79521       -0.63190
H         -4.66463       -3.56058        1.09899
H         -5.75624       -2.79108       -0.09113
H          6.73290       -1.33262       -0.93619
C          7.25707       -0.05027        0.65742
H          8.29260       -0.27125        0.36730
H          7.11359       -0.39519        1.69799
H          7.13346        1.04673        0.64896
