49
Azulene_H12_Int2_Sub27.log	Energy: -755935.4939048
C          0.63732       -0.10186        0.17694
C         -0.14778       -0.98056       -0.58332
C          0.18084        0.87964        1.06903
C         -1.53889       -1.09451       -0.68742
H          0.41127       -1.70775       -1.18115
C         -1.24477        1.21935        1.36457
C          0.96257        1.74574        1.85019
C         -2.57779       -0.38503       -0.07754
H         -1.86841       -1.88302       -1.37344
C         -2.40206        0.65541        0.84580
C         -1.22436        2.27216        2.30304
C          0.10638        2.57990        2.59396
H          2.05089        1.74612        1.88647
C         -4.00073       -0.77606       -0.43195
H         -3.32381        1.10448        1.23329
H         -2.11042        2.74764        2.72373
H          0.43723        3.34525        3.29814
O          2.84104        1.65763       -0.61374
C          2.13770        2.38028       -1.31669
O          1.00547        2.00629       -1.84605
C          2.52067        3.78981       -1.60488
H          3.59308        3.93103       -1.43398
H          2.23825        4.06635       -2.62854
H          1.95754        4.43580       -0.91261
H          0.75612        1.12200       -1.49238
Pd         2.56203       -0.32668       -0.09361
O          4.54261       -1.35523       -0.20245
C          3.91755       -2.38579        0.13417
O          2.65163       -2.31927        0.31602
C          4.60554       -3.69525        0.36014
H          3.99670       -4.51734       -0.03913
H          5.60109       -3.68669       -0.09924
H          4.71164       -3.85631        1.44388
H         -3.93568       -1.59318       -1.17260
C         -4.78183        0.36408       -1.09735
H         -4.23035        0.72196       -1.98187
H         -4.83943        1.22085       -0.40201
C         -6.19408       -0.06593       -1.47923
H         -6.73962        0.78068       -1.92663
H         -6.13646       -0.84458       -2.26151
C         -6.95488       -0.61790       -0.27870
H         -7.95906       -0.95588       -0.58170
H         -7.10908        0.19316        0.45631
C         -6.18785       -1.75540        0.38625
H         -6.13021       -2.61063       -0.31144
H         -6.72889       -2.11867        1.27491
C         -4.77554       -1.32889        0.77126
H         -4.83085       -0.55271        1.55580
H         -4.21913       -2.17181        1.21166
