33
Azulene_H8_deriv1_Int2_Sub26.log	Energy: -1185424.0400628
C          0.36511       -0.44846        0.01720
C         -0.59943        0.38956       -0.55887
C          0.17331       -1.65220        0.70094
C         -1.99701        0.30786       -0.56443
H         -0.22036        1.26596       -1.08833
C         -1.04102       -2.26880        0.99908
H          1.07572       -2.18203        1.01817
C         -2.83845       -0.66392       -0.00480
Cl        -2.72840        1.65910       -1.38554
C         -2.34422       -1.87384        0.72058
H         -0.96644       -3.21508        1.54637
C         -4.24560       -0.77230        0.01844
C         -3.47195       -2.61572        1.11861
Cl        -5.43830        0.28023       -0.63457
C         -4.61671       -1.94899        0.69530
H         -3.43318       -3.55448        1.66992
H         -5.65007       -2.25999        0.84574
O          1.72883        2.10372        0.06413
C          1.13901        2.54940        1.04897
O          0.77318        1.80666        2.05824
C          0.74850        3.98016        1.14521
H          1.38969        4.58968        0.49950
H         -0.29188        4.05860        0.78923
H          0.77875        4.32597        2.18567
H          0.96166        0.86789        1.83360
Pd         2.23739        0.10663       -0.16212
O          4.43704       -0.04758       -0.44095
C          4.25284       -1.28392       -0.50111
O          3.06224       -1.74003       -0.36446
C          5.36768       -2.24599       -0.75596
H          5.23076       -3.15439       -0.15458
H          5.34312       -2.54093       -1.81627
H          6.33368       -1.77435       -0.54011
