33
Azulene_H12_Int2_Sub18.log	Energy: -897105.7043734
C          0.53329       -0.79433        0.24141
C          0.65201       -1.75712        1.26063
C          1.53164       -0.39380       -0.66085
C          1.76147       -2.50434        1.67578
H         -0.27028       -1.96705        1.81188
C          2.96023       -0.84137       -0.68080
C          1.43052        0.52111       -1.72650
C          3.07105       -2.50547        1.20428
H          1.56346       -3.18733        2.50863
C          3.59492       -1.75358        0.15172
C          3.60378       -0.15990       -1.73349
C          2.67381        0.65661       -2.37150
Cl         0.01850        1.34297       -2.26912
H          3.76794       -3.17643        1.71326
H          4.65834       -1.90590       -0.06340
H          4.65402       -0.27592       -1.99982
H          2.84986        1.29645       -3.23590
O         -0.44411        1.88596        0.85324
C          0.46043        2.16482        1.63339
O          1.20349        1.28088        2.24633
C          0.81313        3.57971        1.94088
H          0.00276        4.24463        1.62468
H          1.03047        3.69664        3.01060
H          1.72897        3.83292        1.38427
H          0.98557        0.37661        1.92618
Pd        -1.22013        0.05682        0.21409
O         -3.41972        0.28715        0.03863
C         -3.43235       -0.92238       -0.28680
O         -2.33114       -1.57341       -0.31080
C         -4.69287       -1.62576       -0.67933
H         -4.69571       -2.64985       -0.28313
H         -5.56679       -1.06605       -0.32521
H         -4.73172       -1.69266       -1.77742
