36
Azulene_H12_Int2_Sub14.log	Energy: -633437.3602033
C         -0.51425        0.48783       -0.12029
C         -0.64965        1.65253        0.64484
C         -1.49180       -0.16097       -0.89194
C         -1.76307        2.48169        0.88530
H          0.27582        1.99548        1.12154
C         -2.92098        0.23829       -1.03207
C         -1.32846       -1.31819       -1.67062
C         -3.06234        2.31189        0.39480
C         -1.50152        3.68016        1.75991
C         -3.56541        1.32074       -0.44847
C         -3.52935       -0.70686       -1.88300
C         -2.56263       -1.63886       -2.26804
H         -0.39197       -1.85805       -1.80316
H         -3.78723        3.06677        0.71260
H         -4.62986        1.40956       -0.69326
H         -4.57687       -0.69157       -2.18411
H         -2.73163       -2.48393       -2.93750
O          0.59355       -2.11873        0.61537
C         -0.28708       -2.36572        1.43660
O         -1.00293       -1.45498        2.03711
C         -0.63536       -3.76658        1.80084
H          0.18952       -4.43893        1.54260
H         -0.89219       -3.83782        2.86531
H         -1.52655       -4.04976        1.21836
H         -0.81427       -0.57444        1.63954
Pd         1.28482       -0.28022       -0.04036
O          3.51177       -0.38856       -0.18586
C          3.45076        0.80773       -0.54802
O          2.30947        1.38495       -0.61411
C          4.66976        1.58415       -0.93589
H          4.60091        2.61272       -0.55747
H          5.57263        1.08841       -0.55995
H          4.72054        1.63664       -2.03424
H         -2.42080        4.23952        1.97814
H         -0.79250        4.36610        1.26859
H         -1.04395        3.38091        2.71568
