36
Azulene_H16_deriv1_Int2_Sub22.log	Energy: -921756.8725797
C          0.34189        0.11565        0.34843
C         -0.61240       -0.67169       -0.33242
C         -0.33254        1.04163        1.16822
C         -1.90895       -0.26335        0.03920
H         -0.35643       -1.48544       -1.00659
C         -1.71579        0.85078        1.02047
H          0.12338        1.78414        1.82354
C         -3.11090       -0.81989       -0.43619
C         -2.67861        1.59574        1.69172
C         -4.40080       -0.39358       -0.04845
C         -3.03350       -1.94785       -1.42441
C         -4.06236        1.48889        1.60946
H         -2.28900        2.36100        2.37118
C         -4.81045        0.60643        0.83680
Cl        -5.75355       -1.24263       -0.78065
H         -4.64319        2.17882        2.22706
H         -5.89517        0.69971        0.93005
O          2.52487        1.93433       -0.08709
C          1.91981        2.65655       -0.87951
O          0.86349        2.28311       -1.54520
C          2.35382        4.05810       -1.13958
H          3.32497        4.24557       -0.67056
H          2.40145        4.23665       -2.22270
H          1.59848        4.74459       -0.72798
H          0.56689        1.40101       -1.20923
Pd         2.25794       -0.10104        0.16590
O          4.24749       -1.10322        0.06553
C          3.60961       -2.16881        0.22254
O          2.33378       -2.12508        0.32221
C          4.29167       -3.49644        0.32675
H          5.31310       -3.43070       -0.06654
H          4.33416       -3.78979        1.38688
H          3.71441       -4.26295       -0.20714
H         -3.53871       -2.84042       -1.02506
H         -2.00343       -2.21261       -1.67424
H         -3.56568       -1.68316       -2.35069
