38
Azulene_H16_deriv1_Int2_Sub7.log	Energy: -956464.8002505
C         -0.19157        0.06256       -0.32293
C          0.78093       -0.51177        0.54556
C          0.47685        0.68094       -1.41152
C          2.06884       -0.24943       -0.00857
N          0.58814       -1.21010        1.71207
C          1.85651        0.53936       -1.26083
H         -0.00898        1.20662       -2.23373
C          3.25996       -0.71397        0.51028
C          2.83552        1.05060       -2.10400
C          4.56570       -0.49520        0.04324
H          3.19289       -1.34946        1.39855
C          4.22383        0.93641       -2.00499
H          2.46076        1.61576       -2.96414
C          4.98599        0.24845       -1.05807
Cl         5.83133       -1.26397        0.97703
H          4.80084        1.43897       -2.78560
H          6.06937        0.28297       -1.20048
O         -2.28271        2.04280        0.16797
C         -1.53160        2.81117        0.76965
O         -0.32923        2.50234        1.15646
C         -1.95585        4.20218        1.09998
H         -3.01784        4.33799        0.87170
H         -1.75434        4.40850        2.16034
H         -1.35136        4.90747        0.50990
H         -0.09554        1.60078        0.79922
Pd        -2.13668        0.01804       -0.21403
O         -4.22112       -0.75813       -0.32042
C         -3.69871       -1.87335       -0.54270
O         -2.42099       -1.96980       -0.56905
C         -4.51417       -3.10146       -0.79611
H         -5.56897       -2.91340       -0.56416
H         -4.41620       -3.38324       -1.85532
H         -4.12751       -3.93779       -0.19762
H          1.32676       -1.10872        2.39437
C         -0.70645       -1.52565        2.24786
H         -0.57760       -2.16024        3.13617
H         -1.30145       -2.08615        1.51263
H         -1.29527       -0.63438        2.54887
