36
Azulene_H18_Int2_Sub30.log	Energy: -633437.3855045
C          0.33292        0.37420       -0.53118
C          1.44489       -0.30919        0.03661
C          0.84471        1.30588       -1.45685
C          2.67739        0.26731       -0.57299
C          1.34459       -1.33185        0.97274
C          2.24738        1.24679       -1.48332
H          0.23839        1.97748       -2.06836
C          4.01780       -0.06457       -0.30551
C          2.36623       -2.05435        1.59018
H          0.32000       -1.60956        1.23824
H          2.89045        1.86615       -2.10659
C          4.46121       -1.04057        0.59639
C          5.07697        0.69173       -1.06088
C          3.74001       -1.90913        1.41870
H          2.04879       -2.82759        2.29505
H          5.54809       -1.14654        0.66227
H          4.35792       -2.58466        2.01958
O         -2.01918        1.96910        0.02088
C         -1.41669        2.76871        0.74035
O         -0.24583        2.53788        1.25548
C         -1.99988        4.09990        1.07295
H         -1.38502        4.88515        0.60815
H         -3.03012        4.16336        0.70840
H         -1.96135        4.25679        2.16002
H          0.10735        1.69287        0.85323
Pd        -1.55972       -0.02698       -0.24216
O         -3.45464       -1.19174       -0.04532
C         -2.74046       -2.20144       -0.23290
O         -1.47762       -2.05451       -0.39126
C         -3.31458       -3.58147       -0.30560
H         -3.35656       -3.89253       -1.36063
H         -2.66376       -4.29089        0.22289
H         -4.32813       -3.59434        0.11245
H          5.00173        1.77296       -0.86641
H          4.95632        0.55325       -2.14667
H          6.08613        0.36149       -0.78289
