36
Azulene_H18_Int2_Sub1.log	Energy: -820184.0973357
C         -0.50397       -0.19829       -0.19799
C         -1.75473        0.39328        0.11116
C         -0.79398       -1.41365       -0.87101
C         -2.82232       -0.51909       -0.38204
C         -1.92923        1.62400        0.74222
C         -2.17628       -1.61115       -0.98293
C          0.20948       -2.39763       -1.37914
C         -4.20056       -0.35755       -0.27900
C         -3.11384        2.27443        1.08697
H         -0.99961        2.15011        0.98116
H         -2.66573       -2.46118       -1.45625
C         -4.92142        0.69181        0.29219
H         -4.79711       -1.16870       -0.71084
C         -4.43115        1.85305        0.89173
H         -2.99496        3.24532        1.57553
H         -6.01010        0.59676        0.25771
H         -5.19754        2.54259        1.26069
O          2.02657       -0.96170        1.06403
C          1.47471       -1.67069        1.90750
O          0.21872       -1.56533        2.22917
C          2.22259       -2.74713        2.61181
H          2.03044       -3.68562        2.06826
H          3.29724       -2.53700        2.58904
H          1.85699       -2.86609        3.63925
H         -0.21575       -0.94297        1.58622
Pd         1.24212        0.65605        0.07002
O          2.83306        2.18857       -0.01790
C          1.99524        2.89671       -0.62164
O          0.81538        2.43436       -0.81141
C          2.33331        4.25162       -1.15496
H          2.53610        4.16483       -2.23348
H          1.48170        4.93323       -1.02950
H          3.22752        4.64386       -0.65600
F         -0.32289       -3.21942       -2.28727
F          0.67780       -3.18596       -0.38422
F          1.27136       -1.81451       -1.93443
