42
Azulene_H18_Int2_Sub29.log	Energy: -682735.0950952
C         -0.11523        0.31125       -0.48382
C          0.92807       -0.39282        0.16986
C          0.48663        1.18111       -1.42038
C          2.22317        0.09953       -0.39446
C          0.71599       -1.37014        1.14122
C          1.87854        1.05972       -1.37072
H         -0.05550        1.85214       -2.08980
C          3.51989       -0.29122       -0.02715
C          1.65046       -2.11423        1.85238
H         -0.33775       -1.58060        1.34854
H          2.56925        1.62793       -1.99037
C          3.84658       -1.24895        0.94910
C          4.70639        0.35583       -0.72860
C          3.04105       -2.04167        1.76060
H          1.25023       -2.83860        2.56678
H          4.91879       -1.40938        1.09296
H          3.58759       -2.71676        2.42764
O         -2.38996        2.04712       -0.07014
C         -1.77191        2.82670        0.65793
O         -0.64200        2.53895        1.23260
C         -2.28555        4.19928        0.93202
H         -1.60446        4.93273        0.47493
H         -3.29358        4.31505        0.52114
H         -2.28314        4.38346        2.01546
H         -0.32336        1.66317        0.86996
Pd        -2.03805        0.02240       -0.27701
O         -4.00352       -1.03172       -0.15073
C         -3.33875       -2.08261       -0.28700
O         -2.06376       -2.00854       -0.38793
C         -3.98495       -3.43025       -0.36309
H         -3.99460       -3.75971       -1.41331
H         -3.40015       -4.16347        0.20835
H         -5.01613       -3.37907        0.00605
H          4.31190        1.06628       -1.46530
C          5.56501        1.15981        0.24835
H          6.36807        1.68547       -0.29154
H          4.96224        1.91101        0.78029
H          6.04115        0.51479        1.00319
C          5.53328       -0.67152       -1.50229
H          4.90651       -1.22930       -2.21390
H          6.33174       -0.16903       -2.07030
H          6.01344       -1.40180       -0.83257
