37
Azulene_H8_Int2_Sub32.log	Energy: -680605.0805932
C         -0.19912       -0.09861        0.19382
C          0.43377        0.71125        1.15617
C          0.39586       -0.95411       -0.73987
C          1.79019        0.87311        1.41696
H         -0.23259        1.29613        1.79853
C          1.75397       -1.19243       -0.98359
H         -0.29680       -1.53541       -1.35698
C          2.89614        0.30253        0.77955
H          2.03357        1.55637        2.23835
C          2.87390       -0.66212       -0.35501
H          1.96558       -1.90687       -1.78692
C          4.23472        0.53715        1.09377
C          4.21099       -0.96142       -0.67000
H          4.61730        1.18958        1.87660
C          5.02834       -0.23032        0.21216
H          4.53053       -1.64267       -1.45591
O          6.36069       -0.20962        0.27431
O         -2.22139        1.99533        0.24525
C         -1.63867        2.75187       -0.53083
O         -0.75526        2.35195       -1.40375
C         -1.88883        4.21985       -0.52911
H         -2.74469        4.45559        0.11134
H         -0.98810        4.73034       -0.15560
H         -2.06029        4.56947       -1.55650
H         -0.56657        1.39598       -1.24781
Pd        -2.15824       -0.07931        0.16858
O         -4.25500       -0.85570        0.10851
C         -3.73067       -1.98901        0.03093
O         -2.45382       -2.08806        0.00902
C         -4.54708       -3.24240       -0.00925
H         -4.10582       -3.96034       -0.71331
H         -4.53373       -3.70499        0.98953
H         -5.58389       -3.01292       -0.28243
C          7.06187       -1.01080       -0.63993
H          6.81214       -2.07853       -0.51458
H          6.84754       -0.71588       -1.68173
H          8.13066       -0.86610       -0.43853
