37
Azulene_H12_Int2_Sub16.log	Energy: -680605.4041935
C         -0.50353        0.30096       -0.25897
C         -0.56772        1.58275        0.30990
C         -1.51697       -0.42969       -0.88880
C         -1.65209        2.46570        0.42284
H          0.38617        1.95801        0.68419
C         -2.93614       -0.02250       -1.04210
C         -1.40444       -1.70614       -1.48465
C         -2.98816        2.26225        0.01956
O         -1.48344        3.67532        0.98968
C         -3.53711        1.16681       -0.61825
C         -3.59393       -1.06887       -1.70650
C         -2.66003       -2.08216       -1.97774
H         -0.48325       -2.28127       -1.56490
H         -3.64701        3.10379        0.24515
H         -4.60801        1.24266       -0.83639
H         -4.65210       -1.07385       -1.96928
H         -2.87479       -3.01458       -2.50216
O          0.56351       -2.22389        0.78555
C         -0.31507       -2.35264        1.63586
O         -0.99396       -1.35901        2.14039
C         -0.70467       -3.69401        2.14914
H          0.10558       -4.41152        1.98174
H         -0.98158       -3.64042        3.20939
H         -1.59226       -4.01702        1.58173
H         -0.78819       -0.53737        1.64113
Pd         1.28100       -0.48529       -0.07762
O          3.51144       -0.63367       -0.18743
C          3.46867        0.51609       -0.67761
O          2.33490        1.09746       -0.81520
C          4.70021        1.22941       -1.13996
H          4.63251        2.29948       -0.90322
H          5.59241        0.78295       -0.68498
H          4.77254        1.13411       -2.23429
C         -0.21887        4.10220        1.42158
H          0.17015        3.47165        2.23945
H          0.51478        4.11093        0.59812
H         -0.35318        5.12503        1.79517
