45
Azulene_H12_Int2_Sub28.log	Energy: -707383.2394463
C          0.09908       -0.08270        0.21116
C         -0.63927       -1.06756       -0.46963
C         -0.41669        0.94493        1.00569
C         -2.01620       -1.25877       -0.57638
H         -0.03763       -1.81881       -0.99143
C         -1.86214        1.23133        1.24983
C          0.30839        1.92010        1.71742
C         -3.11320       -0.55386       -0.05266
H         -2.27631       -2.12608       -1.19073
C         -2.99107        0.56830        0.76987
C         -1.91255        2.35980        2.08735
C         -0.60156        2.76585        2.36976
H          1.39439        1.97994        1.76775
C         -4.51044       -1.08905       -0.42742
H         -3.92466        1.01941        1.11241
H         -2.82918        2.82395        2.45178
H         -0.32666        3.60720        3.00825
O          2.23517        1.71367       -0.68782
C          1.51093        2.35565       -1.44569
O          0.40329        1.89662       -1.96024
C          1.83578        3.75808       -1.82457
H          2.89888        3.95766       -1.65380
H          1.55360        3.95336       -2.86685
H          1.23676        4.42265       -1.18171
H          0.18768        1.03059       -1.54624
Pd         2.03295       -0.24007       -0.03457
O          4.05630       -1.18835       -0.06419
C          3.47276       -2.21977        0.33757
O          2.20369       -2.19480        0.50904
C          4.21316       -3.48116        0.65309
H          3.64196       -4.35282        0.30682
H          5.21065       -3.46114        0.19831
H          4.31835       -3.56542        1.74557
C         -5.64634       -0.26471        0.18160
H         -6.61236       -0.69461       -0.12315
H         -5.61756       -0.26954        1.28182
H         -5.62933        0.78103       -0.16147
C         -4.67634       -1.05598       -1.95473
H         -3.92502       -1.67431       -2.46751
H         -5.66971       -1.43667       -2.24083
H         -4.58120       -0.02771       -2.33637
C         -4.65673       -2.53237        0.07932
H         -5.65086       -2.93025       -0.17948
H         -3.90612       -3.20544       -0.36015
H         -4.54415       -2.57574        1.17341
