45
Azulene_H18_Int2_Sub28.log	Energy: -707378.0562181
C         -0.26472        0.29036       -0.41550
C          0.74096       -0.47177        0.24244
C          0.38926        1.16106       -1.30389
C          2.07696       -0.00907       -0.26799
C          0.43534       -1.46374        1.16650
C          1.77741        0.98793       -1.21898
H         -0.10535        1.87160       -1.96931
C          3.35476       -0.46648        0.14028
C          1.29927       -2.28227        1.88838
H         -0.63611       -1.62204        1.32185
H          2.48665        1.55910       -1.80899
C          3.56322       -1.47468        1.09483
C          4.62552        0.15879       -0.48975
C          2.68667       -2.26289        1.84476
H          0.83797       -3.01154        2.55947
H          4.60565       -1.70924        1.29822
H          3.18412       -2.98353        2.50260
O         -2.50185        2.08088       -0.00385
C         -1.87998        2.81856        0.76372
O         -0.76802        2.48348        1.34711
C         -2.36794        4.19161        1.07953
H         -1.66012        4.92579        0.66641
H         -3.36368        4.34696        0.65210
H         -2.38566        4.33378        2.16917
H         -0.46375        1.61385        0.95657
Pd        -2.20298        0.05625       -0.28002
O         -4.20466       -0.93234       -0.26246
C         -3.57180       -1.99977       -0.42071
O         -2.29230       -1.96658       -0.47601
C         -4.26049       -3.31933       -0.57491
H         -4.24529       -3.60479       -1.63787
H         -3.72096       -4.09567       -0.01604
H         -5.30140       -3.24681       -0.23808
C          5.93247       -0.43293        0.05619
H          6.77726        0.06678       -0.44102
H          6.04847       -0.27015        1.13828
H          6.02491       -1.50994       -0.14905
C          4.64748       -0.11231       -2.00530
H          3.77147        0.27729       -2.53408
H          5.54788        0.33911       -2.45099
H          4.68590       -1.19626       -2.19340
C          4.68699        1.66382       -0.17091
H          5.58749        2.10421       -0.62723
H          3.81523        2.22326       -0.52568
H          4.75279        1.81611        0.91749
