42
Azulene_H12_Int2_Sub29.log	Energy: -682735.5052730
C         -0.06719       -0.21102        0.11897
C         -0.67246       -1.17781       -0.69642
C         -0.71079        0.67718        0.99360
C         -2.02472       -1.48706       -0.88537
H          0.01894       -1.80634       -1.26707
C         -2.18530        0.80554        1.20523
C         -0.10819        1.62903        1.83132
C         -3.18750       -0.94367       -0.33242
H         -2.19683       -2.30158       -1.59819
C         -3.21731        0.09373        0.61006
C         -2.37069        1.83157        2.15544
C         -1.11705        2.31830        2.53112
H          0.96486        1.78299        1.93427
C         -4.52246       -1.52389       -0.78014
H         -4.21525        0.40048        0.94454
H         -3.33874        2.16808        2.52665
H         -0.94069        3.10803        3.26346
O          1.90193        1.86426       -0.50997
C          1.14419        2.49411       -1.24494
O          0.11372        1.97208       -1.85139
C          1.33229        3.95118       -1.48556
H          2.35980        4.24302       -1.24423
H          1.07502        4.20934       -2.52058
H          0.63914        4.49031       -0.82032
H         -0.02319        1.05236       -1.52818
Pd         1.88227       -0.15216       -0.04045
O          3.99288       -0.88384       -0.05058
C          3.50536       -2.00170        0.23017
O          2.23494       -2.12143        0.33897
C          4.36143       -3.20491        0.47179
H          3.90031       -4.09469        0.02280
H          5.36903       -3.04201        0.07124
H          4.43004       -3.37778        1.55672
H         -4.29110       -2.31695       -1.51080
C         -5.27700       -2.17836        0.37665
H         -6.20406       -2.65315        0.01886
H         -4.66361       -2.94853        0.86748
H         -5.56017       -1.43918        1.14313
C         -5.38551       -0.48496       -1.49550
H         -4.85112       -0.04133       -2.34894
H         -6.31445       -0.94136       -1.87188
H         -5.67290        0.33564       -0.81858
