33
Azulene_H16_Int2_Sub18.log	Energy: -897106.9735301
C          0.22913       -0.07382        0.32055
C         -0.69755       -0.64285       -0.58039
C         -0.47766        0.53359        1.38639
C         -1.99935       -0.40967       -0.09459
H         -0.45784       -1.20717       -1.48165
C         -1.85065        0.34962        1.18127
H         -0.03735        1.05523        2.23612
C         -3.16915       -0.82612       -0.71400
C         -2.87549        0.79877        2.01276
C         -4.49070       -0.63196       -0.29774
H         -3.04616       -1.37873       -1.64971
C         -4.25186        0.65365        1.85658
H         -2.54922        1.33571        2.90971
C         -4.96831        0.02265        0.83777
Cl        -5.71148       -1.30599       -1.35035
H         -4.86790        1.09399        2.64542
H         -6.05661        0.03739        0.93622
O          2.18347        1.98190       -0.05439
C          1.43768        2.72963       -0.68663
O          0.33920        2.34976       -1.27443
C          1.74011        4.18283       -0.82603
H          2.74154        4.39861       -0.44022
H          1.65475        4.47989       -1.88045
H          0.98844        4.75659       -0.26303
H          0.13678        1.40749       -1.04484
Pd         2.14873       -0.07895        0.08953
O          4.23519       -0.82803       -0.10257
C          3.73550       -1.96921        0.02459
O          2.46785       -2.08402        0.16002
C          4.57438       -3.20770        0.04968
H          5.57821       -2.99473       -0.33648
H          4.65508       -3.56041        1.08920
H          4.09146       -4.00345       -0.53318
