38
Azulene_H16_deriv1_Int2_Sub23.log	Energy: -956467.5778019
C         -0.42746        0.30062       -0.31400
C          0.56607       -0.56057        0.20402
C          0.20675        1.40081       -0.91214
C          1.84122       -0.02002       -0.05606
H          0.33242       -1.51718        0.65600
C          1.60396        1.23935       -0.79967
H         -0.27255        2.23493       -1.42584
C          3.08922       -0.60005        0.31130
C          2.50675        2.13468       -1.37478
C          4.35251       -0.10718       -0.17439
N          3.15923       -1.67530        1.12933
C          3.88451        2.04141       -1.43668
H          2.05106        3.00056       -1.86630
C          4.67833        1.01720       -0.91166
Cl         5.77144       -1.06117        0.27674
H          4.42066        2.83574       -1.96065
H          5.75114        1.12132       -1.09284
O         -2.85885        1.85853        0.07159
C         -2.39616        2.60532        0.93417
O         -1.29900        2.36176        1.59293
C         -3.06784        3.88655        1.29411
H         -4.04115        3.95511        0.79786
H         -3.18198        3.94858        2.38542
H         -2.42595        4.72525        0.98527
H         -0.84888        1.57964        1.17719
Pd        -2.32026       -0.12204       -0.25285
O         -4.18694       -1.41436       -0.30084
C         -3.39103       -2.36654       -0.44650
O         -2.12961       -2.14024       -0.46564
C         -3.86319       -3.77580       -0.63236
H         -4.89724       -3.87907       -0.28223
H         -3.82365       -4.02306       -1.70435
H         -3.19920       -4.47354       -0.10511
H          4.09649       -2.04412        1.23478
C          2.17645       -2.23468        2.01769
H          1.50298       -2.95319        1.52237
H          1.56346       -1.45067        2.48310
H          2.71004       -2.77169        2.81419
