33
Azulene_H11_Int2_Sub2.log	Energy: -897104.5960348
C          0.50537       -0.01670        0.23110
C          0.97297        0.81838        1.25813
C          1.30960       -0.85567       -0.56166
C          2.27038        1.07096        1.72484
Cl        -0.25495        1.72888        2.11898
C          2.68836       -1.02830       -0.60015
H          0.75818       -1.47976       -1.27476
C          3.47799        0.55085        1.26947
H          2.32975        1.77647        2.55621
C          3.71436       -0.36315        0.24846
C          3.38130       -1.88817       -1.47200
H          4.36826        0.91319        1.79433
C          4.96145       -0.85569       -0.16125
C          4.75154       -1.77682       -1.20224
H          2.91635       -2.52563       -2.22346
H          5.92209       -0.56970        0.26644
H          5.53939       -2.32542       -1.72109
O         -1.76924        1.72393       -0.71872
C         -1.02573        2.54644       -1.24667
O          0.24323        2.34187       -1.47033
C         -1.52153        3.88794       -1.66386
H         -2.61612        3.89237       -1.68941
H         -1.17101        4.62779       -0.92744
H         -1.09948        4.16408       -2.63906
H          0.50114        1.47153       -1.07995
Pd        -1.43201       -0.22376       -0.09241
O         -3.38658       -1.23689       -0.23372
C         -2.78443       -2.26648        0.15075
O         -1.52467       -2.20146        0.36906
C         -3.49349       -3.56039        0.39012
H         -2.87706       -4.40019        0.04292
H         -3.64628       -3.68431        1.47318
H         -4.46920       -3.55714       -0.11016
