33
Azulene_H11_Int2_Sub26.log	Energy: -897106.2238759
C         -0.06001       -0.33745        0.07126
C          0.23825       -1.37739        0.96290
C          0.84974        0.40085       -0.70459
C          1.47229       -1.90172        1.36470
H         -0.63474       -1.86696        1.40837
C          2.23633        0.32632       -0.75777
H          0.41455        1.15531       -1.37073
C          2.75405       -1.53820        0.95715
H          1.41875       -2.71452        2.09450
C          3.12457       -0.56973        0.03218
C          3.06714        1.12039       -1.57271
H          3.58770       -2.08650        1.40871
C          4.43364       -0.24674       -0.36109
C          4.39924        0.77036       -1.32961
H          2.71826        1.87763       -2.27410
Cl         5.86060       -0.98881        0.24844
H          5.28008        1.20359       -1.80342
O         -1.67597        2.07813       -0.25509
C         -1.12484        2.72962        0.63267
O         -0.50183        2.18322        1.64037
C         -1.10777        4.21767        0.61969
H         -1.77687        4.59583       -0.15971
H         -1.39904        4.60189        1.60693
H         -0.07793        4.55569        0.42773
H         -0.46740        1.20798        1.48941
Pd        -1.97692        0.02537       -0.18206
O         -4.15700       -0.37456       -0.42474
C         -3.85611       -1.58066       -0.28464
O         -2.63029       -1.89669       -0.08162
C         -4.87375       -2.67256       -0.37469
H         -4.80835       -3.13450       -1.37176
H         -4.66075       -3.45284        0.36793
H         -5.88224       -2.26496       -0.23667
