33
Azulene_H8_Int2_Sub2.log	Energy: -897104.8821164
C          0.37213       -0.29084       -0.05554
C          1.09653        0.23342        1.02774
C          0.89589       -1.00031       -1.15050
C          2.46737        0.19324        1.29516
Cl         0.16160        1.08068        2.25370
C          2.21387       -1.34517       -1.46180
H          0.14791       -1.35135       -1.86847
C          3.49233       -0.36302        0.54142
H          2.77194        0.67606        2.22865
C          3.38184       -1.08121       -0.75680
H          2.34408       -1.90430       -2.39484
C          4.85633       -0.34576        0.88025
C          4.68425       -1.45345       -1.12551
H          5.27395        0.10608        1.77955
C          5.56897       -1.00539       -0.13187
H          4.94854       -2.00023       -2.03025
H          6.65048       -1.15020       -0.14392
O         -1.54892        1.97039       -0.33459
C         -0.73257        2.72614       -0.85320
O          0.39918        2.33532       -1.37466
C         -0.96240        4.19697       -0.90913
H         -2.02144        4.41713       -0.73892
H         -0.36357        4.66581       -0.11257
H         -0.61882        4.60369       -1.86896
H          0.51831        1.37020       -1.22154
Pd        -1.57895       -0.09087       -0.09263
O         -3.70711       -0.66827       -0.07221
C         -3.29955       -1.84748        0.04779
O         -2.03899       -2.06759        0.06638
C         -4.23723       -3.00175        0.19841
H         -3.86801       -3.86660       -0.36861
H         -4.27411       -3.29020        1.26008
H         -5.24433       -2.71862       -0.13004
