36
Azulene_H11_Int2_Sub22.log	Energy: -633436.0470080
C          0.26378       -0.31970       -0.01498
C          0.58047       -1.41734        0.79289
C          1.16884        0.44881       -0.76248
C          1.81710       -1.98447        1.11774
H         -0.28082       -1.92813        1.23725
C          2.55148        0.34532       -0.84896
H          0.73733        1.25503       -1.36755
C          3.11739       -1.64738        0.72212
H          1.75112       -2.84284        1.79335
C          3.46540       -0.60702       -0.15707
C          3.36111        1.19098       -1.63752
C          4.23809       -2.48192        1.27843
C          4.76457       -0.27359       -0.56662
C          4.69236        0.81195       -1.46143
H          2.98908        1.99623       -2.27064
H          5.68063       -0.77011       -0.25175
H          5.55155        1.28253       -1.94257
O         -1.31689        2.13600       -0.10876
C         -0.71210        2.71146        0.79624
O         -0.04534        2.08505        1.72608
C         -0.67561        4.19634        0.89458
H         -1.38968        4.63855        0.19259
H         -0.89382        4.50762        1.92530
H          0.34363        4.53812        0.65761
H         -0.02338        1.12407        1.49663
Pd        -1.65229        0.08826       -0.18106
O         -3.85003       -0.26424       -0.38350
C         -3.56147       -1.48058       -0.34336
O         -2.33562       -1.82749       -0.20375
C         -4.59800       -2.55028       -0.48226
H         -4.57447       -2.93251       -1.51433
H         -4.37100       -3.38936        0.18862
H         -5.59503       -2.14281       -0.27672
H          4.95397       -1.85589        1.83387
H          4.80265       -2.96847        0.46755
H          3.86578       -3.26213        1.95473
