33
Azulene_H8_Int2_Sub10.log	Energy: -897107.2574782
C          0.11254       -0.39351        0.00347
C          1.00397        0.44183        0.69111
C          0.38770       -1.53668       -0.75865
C          2.39757        0.37097        0.77209
H          0.56608        1.27337        1.24826
C          1.62961       -2.10110       -1.05265
H         -0.48287       -2.06649       -1.15621
C          3.28404       -0.53786        0.18920
Cl         3.11494        1.63648        1.73739
C          2.90212       -1.69306       -0.66855
H          1.60280       -2.99959       -1.67919
C          4.68195       -0.55197        0.29163
C          4.10085       -2.33514       -1.03089
H          5.27424        0.16491        0.85632
C          5.16849       -1.64209       -0.44977
H          4.16509       -3.22336       -1.65897
H          6.22220       -1.90580       -0.55232
O         -1.39474        2.08844       -0.05175
C         -0.79294        2.59141       -1.00066
O         -0.25899        1.89063       -1.96373
C         -0.59332        4.06111       -1.11084
H         -1.30327        4.58679       -0.46388
H          0.43344        4.28759       -0.78195
H         -0.68849        4.38493       -2.15517
H         -0.33417        0.93686       -1.73333
Pd        -1.79021        0.06127        0.13672
O         -3.98674       -0.21400        0.35487
C         -3.73765       -1.43981        0.39676
O         -2.52211       -1.83048        0.28394
C         -4.80647       -2.46446        0.60283
H         -4.60949       -3.34875       -0.01759
H         -4.78894       -2.78545        1.65566
H         -5.79096       -2.03810        0.37659
