36
Azulene_H11_Int2_Sub6.log	Energy: -633434.3148936
C          0.44426       -0.33258        0.23328
C          0.69518       -0.99186        1.46077
C          1.35276       -0.04171       -0.79592
C          1.93507       -1.47729        1.91463
C         -0.47625       -1.20147        2.38689
C          2.71624       -0.29520       -0.90817
H          0.92760        0.48322       -1.66118
C          3.19565       -1.47240        1.31945
H          1.90204       -1.94340        2.90387
C          3.59014       -0.96801        0.08626
C          3.53363        0.05013       -1.99918
H          3.99345       -1.93385        1.91194
C          4.88411       -0.99178       -0.45849
C          4.84060       -0.37566       -1.71969
H          3.19460        0.55603       -2.90297
H          5.76272       -1.41851        0.02480
H          5.69692       -0.24763       -2.38416
O         -1.02032        2.17844       -0.28342
C         -0.28089        2.86774        0.41801
O          0.59468        2.37757        1.24963
C         -0.32084        4.35646        0.36319
H         -1.15441        4.68906       -0.26350
H         -0.41332        4.76041        1.38114
H          0.63162        4.72376       -0.04761
H          0.62908        1.39351        1.13060
Pd        -1.41714        0.14458       -0.21998
O         -3.56693       -0.12314       -0.75845
C         -3.36078       -1.34706       -0.60157
O         -2.19479       -1.74543       -0.25035
C         -4.42722       -2.37119       -0.83120
H         -4.20797       -2.91048       -1.76517
H         -4.42226       -3.10854       -0.01690
H         -5.40824       -1.88870       -0.91278
H         -1.23483       -1.83282        1.89859
H         -0.97212       -0.24658        2.62520
H         -0.16739       -1.67462        3.32861
