38
Azulene_H18_Int2_Sub23.log	Energy: -668145.0338708
C         -0.36959        0.15259        0.30419
C         -1.22084       -0.85934       -0.18619
C         -1.16704        1.09504        1.00368
C         -2.61640       -0.48592        0.20762
C         -0.82492       -2.00175       -0.87499
C         -2.51980        0.71596        0.96444
H         -0.77957        1.97939        1.51073
C         -3.79097       -1.12433       -0.14005
C         -1.60957       -3.02988       -1.40127
H          0.25796       -2.10243       -1.00123
N         -3.58443        1.39791        1.51289
C         -3.97745       -2.30975       -0.86757
H         -4.71365       -0.63314        0.19178
C         -3.00371       -3.14889       -1.40392
H         -1.06295       -3.84107       -1.88960
H         -5.01523       -2.61658       -1.02214
H         -3.38979       -4.03990       -1.91087
O          1.53543        2.14046       -0.51843
C          0.82523        2.56147       -1.43436
O         -0.16865        1.89876       -1.94569
C          1.05659        3.90716       -2.03346
H          0.20236        4.55667       -1.79007
H          1.98256        4.34134       -1.64301
H          1.09832        3.82059       -3.12819
H         -0.32604        1.08528       -1.38599
Pd         1.57855        0.20071        0.19021
O          3.71082       -0.44805        0.33137
C          3.25018       -1.54268        0.72507
O          1.98112       -1.69505        0.80716
C          4.13475       -2.67961        1.13087
H          4.15659       -2.73703        2.22988
H          3.72639       -3.62850        0.75803
H          5.15406       -2.51981        0.75979
H         -4.34956        0.80731        1.81224
C         -3.34509        2.53968        2.34945
H         -4.30407        2.94738        2.69791
H         -2.83986        3.33482        1.77723
H         -2.71781        2.32036        3.23721
