49
Azulene_H18_Int2_Sub3.log	Energy: -755939.7026045
C         -0.68030       -0.33019       -0.16938
C         -2.05746       -0.22841       -0.48251
C         -0.32930       -1.71260       -0.19572
C         -2.56888       -1.61415       -0.68465
C         -2.78476        0.95545       -0.57348
C         -1.47502       -2.47150       -0.49766
C          1.03310       -2.30071        0.01945
C         -3.86990       -2.00387       -0.98730
C         -4.13683        1.14077       -0.86587
H         -2.19952        1.86498       -0.39501
H         -1.50891       -3.55969       -0.56822
C         -5.00158       -1.21201       -1.18954
H         -4.01961       -3.08495       -1.08463
C         -5.11181        0.17850       -1.13640
H         -4.47762        2.17977       -0.88719
H         -5.92312       -1.75234       -1.42390
H         -6.11281        0.57386       -1.33757
O          0.01772        1.59746        1.98223
C         -0.57159        0.93480        2.83805
O         -1.12519       -0.21667        2.61241
C         -0.68697        1.42332        4.24300
H         -0.17859        0.71264        4.91134
H         -0.23728        2.41690        4.33709
H         -1.74576        1.44684        4.53765
H         -1.02279       -0.43591        1.63687
Pd         0.53390        1.20091        0.02262
O          2.06837        2.72598       -0.54209
C          2.06773        2.17054       -1.66328
O          1.28726        1.17543       -1.86823
C          2.96692        2.61134       -2.77492
H          3.72923        1.83634       -2.94625
H          2.38999        2.71428       -3.70434
H          3.45707        3.55744       -2.51732
H          0.90060       -3.39012        0.15479
C          1.73211       -1.76583        1.27445
H          1.10792       -1.96247        2.16180
H          1.81965       -0.66613        1.18577
C          3.12237       -2.36262        1.45212
H          3.60548       -1.93300        2.34485
H          3.03331       -3.44852        1.63952
C          3.98496       -2.13635        0.21585
H          4.97975       -2.59107        0.35162
H          4.15071       -1.05130        0.08611
C          3.30756       -2.69098       -1.03202
H          3.23177       -3.79046       -0.94320
H          3.92385       -2.49520       -1.92468
C          1.91687       -2.09819       -1.22308
H          1.98965       -1.01862       -1.43534
H          1.41919       -2.54658       -2.09769
