33
Azulene_H11_Int2_Sub10.log	Energy: -897105.0737703
C          0.31259       -0.11079       -0.17678
C          0.62818       -1.34094        0.41356
C          1.19154        0.80620       -0.77377
C          1.87592       -1.93958        0.61910
H         -0.22282       -1.93814        0.75486
C          2.57482        0.74982       -0.89972
H          0.73247        1.70257       -1.20661
C          3.14882       -1.48657        0.26593
Cl         1.83601       -3.48715        1.43401
C          3.49085       -0.31739       -0.40030
C          3.38496        1.71927       -1.51608
H          3.97772       -2.14429        0.54224
C          4.79498        0.07657       -0.74180
C          4.72113        1.30517       -1.41624
H          3.02123        2.63107       -1.98908
H          5.69957       -0.48811       -0.51849
H          5.57849        1.85670       -1.80608
O         -1.30386        2.29945        0.17627
C         -0.71948        2.71143        1.17886
O         -0.07708        1.93168        2.00444
C         -0.68056        4.15769        1.52673
H         -1.37417        4.71724        0.89111
H         -0.92514        4.29272        2.58920
H          0.34583        4.52644        1.37713
H         -0.06315        1.02212        1.62216
Pd        -1.61322        0.29105       -0.24520
O         -3.80070       -0.04858       -0.47632
C         -3.50188       -1.25127       -0.64947
O         -2.26917       -1.59887       -0.58920
C         -4.52880       -2.29413       -0.95293
H         -4.51692       -2.49665       -2.03491
H         -4.28231       -3.23112       -0.43629
H         -5.52650       -1.93965       -0.66802
