36
Azulene_H18_Int2_Sub25.log	Energy: -820177.8963185
C         -0.23444        0.29601       -0.39169
C          0.76371       -0.50550        0.22340
C          0.43191        1.22296       -1.21906
C          2.09423       -0.00379       -0.25456
C          0.50218       -1.56099        1.08471
C          1.82200        1.05008       -1.14050
H         -0.06202        1.97251       -1.84090
C          3.35661       -0.48349        0.12836
C          1.40209       -2.40573        1.74267
H         -0.56090       -1.76209        1.24721
H          2.55988        1.64173       -1.67682
C          3.65350       -1.53201        0.99786
C          4.55414        0.22978       -0.48515
C          2.78986       -2.37805        1.70180
H          0.95535       -3.18266        2.36887
H          4.71536       -1.72937        1.14793
H          3.29268       -3.13586        2.31079
O         -2.47465        2.08141       -0.02201
C         -1.89307        2.80364        0.79061
O         -0.83042        2.44015        1.44690
C         -2.37080        4.18476        1.08059
H         -1.62073        4.90422        0.71917
H         -3.33208        4.36373        0.58850
H         -2.45755        4.32335        2.16735
H         -0.51936        1.57049        1.07247
Pd        -2.17235        0.05624       -0.27736
O         -4.16685       -0.92126       -0.27404
C         -3.54043       -1.99457       -0.41946
O         -2.25942       -1.96651       -0.45991
C         -4.23494       -3.30961       -0.57520
H         -4.21360       -3.59724       -1.63748
H         -3.70432       -4.08792       -0.01066
H         -5.27791       -3.22996       -0.24656
F          5.72133       -0.27565       -0.07921
F          4.56327        1.52783       -0.16486
F          4.54037        0.14902       -1.81869
