33
Azulene_H16_deriv1_Int2_Sub18.log	Energy: -1185424.0836057
C          0.49271        0.09119        0.46296
C         -0.50626       -0.53872       -0.31822
C         -0.13035        0.85562        1.46908
C         -1.77035       -0.18385        0.18372
H         -0.33438       -1.21906       -1.14951
C         -1.52244        0.71750        1.34898
H          0.36722        1.45674        2.22988
C         -3.00309       -0.60664       -0.32945
C         -2.45597        1.32843        2.17780
C         -4.29340       -0.27687        0.13867
Cl        -2.91866       -1.65664       -1.70261
C         -3.84379        1.24924        2.11699
H         -2.03866        1.94678        2.97898
C         -4.63706        0.54233        1.21821
Cl        -5.65992       -0.95131       -0.69985
H         -4.39395        1.81373        2.87419
H         -5.71532        0.63219        1.36948
O          2.51193        1.96424       -0.32284
C          1.76441        2.65466       -1.01520
O          0.61115        2.25996       -1.47435
C          2.13084        4.05030       -1.39012
H          3.15808        4.26689       -1.08018
H          2.01437        4.18396       -2.47468
H          1.43341        4.74546       -0.89899
H          0.37828        1.37299       -1.10132
Pd         2.39357       -0.04579        0.13841
O          4.42977       -0.91712       -0.04222
C          3.89267       -1.99971        0.28671
O          2.63182       -2.02847        0.50573
C          4.67934       -3.26043        0.45730
H          5.67054       -3.15471        0.00078
H          4.79613       -3.46336        1.53276
H          4.13484       -4.10726        0.01839
