46
Benzo13dioxol_H9_Int2_Sub27.log	Energy: -777870.2520584
C          1.00150       -0.42238       -0.20373
C          0.02100        0.08895        0.67711
C          0.68768       -1.47048       -1.07842
C         -1.22875       -0.49522        0.63730
H          0.23105        0.93010        1.33970
C         -0.59560       -2.04707       -1.11108
H          1.44881       -1.84897       -1.76556
C         -1.53370       -1.53844       -0.23743
O         -2.32455       -0.20987        1.38630
H         -0.84384       -2.85866       -1.79686
O         -2.82255       -1.91944       -0.04836
C         -3.40128       -0.96248        0.83567
H         -3.90098       -1.50667        1.65675
C         -4.37340       -0.05953        0.09994
O          3.76806       -1.33101       -0.43689
C          3.64724       -2.29849        0.31495
O          2.69168       -2.41398        1.19405
C          4.59854       -3.44401        0.27257
H          5.43457       -3.21564       -0.39608
H          4.95987       -3.66066        1.28762
H          4.06405       -4.33837       -0.08138
H          2.04448       -1.67938        1.04482
Pd         2.74947        0.46193       -0.23754
O          4.24331        2.12374       -0.19512
C          3.25606        2.87566       -0.03667
O          2.08376        2.36385        0.03002
C          3.39449        4.36323        0.04890
H          4.42915        4.63558        0.28903
H          3.12717        4.79964       -0.92574
H          2.69900        4.76732        0.79640
H         -3.78633        0.43706       -0.69622
C         -4.93738        1.01365        1.02932
H         -4.11332        1.60127        1.46091
H         -5.44902        0.51815        1.87612
C         -5.92728        1.91629        0.30198
H         -6.34522        2.65881        1.00052
H         -5.38854        2.48982       -0.47366
C         -7.04422        1.11153       -0.35391
H         -7.72452        1.77823       -0.90804
H         -7.65391        0.63027        0.43259
C         -6.48283        0.03660       -1.27848
H         -5.97070        0.52057       -2.12957
H         -7.29825       -0.56547       -1.71056
C         -5.49331       -0.86790       -0.55254
H         -6.02659       -1.43597        0.23310
H         -5.06297       -1.61172       -1.23990
