27
Benzene_H10_Int2_Sub22.log	Energy: -574723.4023365
C          0.78483       -0.90739       -0.02010
C          1.91579       -0.77261        0.78996
C          0.74547       -2.02194       -0.87250
C          2.97171       -1.67615        0.76522
F          2.01546        0.28052        1.61587
C          1.79647       -2.93836       -0.92147
H         -0.14101       -2.17963       -1.49219
C          2.90964       -2.76609       -0.09984
H          3.82410       -1.51170        1.42772
H          1.73884       -3.79507       -1.59677
H          3.73343       -3.48291       -0.12689
O          0.28921        2.01490        0.18810
C          1.28456        2.31856       -0.46574
O          1.87460        1.51034       -1.30312
C          1.92415        3.65561       -0.32920
H          1.21944        4.36490        0.11734
H          2.79471        3.54566        0.33638
H          2.28708        4.01061       -1.30214
H          1.46175        0.61616       -1.22293
Pd        -0.79198        0.26745        0.08005
O         -2.92587        0.84150        0.13584
C         -3.16618       -0.38383        0.03881
O         -2.18419       -1.20127       -0.05333
C         -4.55884       -0.92627        0.05740
H         -4.77747       -1.30200        1.06879
H         -5.27713       -0.13570       -0.19059
H         -4.64729       -1.77051       -0.63898
