46
Benzofuran_H9_deriv1_Int2_Sub11.log	Energy: -1042912.9343476
C          0.70123       -0.13995       -0.02394
C         -0.17264        0.75756       -0.64240
C          0.07647       -1.19816        0.63606
C         -1.57597        0.64896       -0.61494
O          0.19748        1.86846       -1.33226
C         -1.32557       -1.32210        0.67612
H          0.67800       -1.97076        1.11837
C         -2.20207       -0.42244        0.06253
C         -2.04945        1.79139       -1.36200
C         -0.94083        2.46732       -1.75539
Cl        -1.94523       -2.69976        1.55165
C         -3.69972       -0.57282        0.11565
H         -3.07461        2.07484       -1.58194
H         -0.80780        3.37478       -2.33967
O          2.73492        1.96877        0.20327
C          2.10489        2.61158        1.04057
O          1.18544        2.09752        1.80998
C          2.33235        4.07070        1.23027
H          3.27873        4.36708        0.76627
H          1.50358        4.60986        0.74555
H          2.31541        4.32441        2.29819
H          1.01341        1.16758        1.52379
Pd         2.66027       -0.06172       -0.12508
O          4.74273       -0.76347       -0.34986
C          4.24786       -1.90586       -0.49038
O          2.97637       -2.04137       -0.41747
C          5.08813       -3.11000       -0.76876
H          4.69198       -3.98149       -0.23105
H          5.04111       -3.33190       -1.84596
H          6.13108       -2.91753       -0.49020
H         -3.90663       -1.48420        0.69797
C         -4.32078       -0.79209       -1.27058
H         -3.84327       -1.66201       -1.74887
H         -4.10583        0.07242       -1.92141
C         -5.82920       -0.99103       -1.17570
H         -6.25894       -1.11289       -2.18318
H         -6.03661       -1.93172       -0.63434
C         -6.50223        0.16471       -0.44331
H         -7.58702       -0.01148       -0.36134
H         -6.38283        1.08965       -1.03737
C         -5.89179        0.37450        0.93817
H         -6.10196       -0.51134        1.56436
H         -6.36623        1.23074        1.44460
C         -4.38362        0.58274        0.85905
H         -4.17218        1.53738        0.34793
H         -3.95084        0.67222        1.86834
