29
Benzooxazole_H10_Int2_Sub26.log	Energy: -905825.9527803
C          0.05927        0.19635        0.37489
C          0.52035        1.21910        1.23603
C          0.96769       -0.62469       -0.30948
C          1.87639        1.46435        1.43955
H         -0.21064        1.83100        1.77088
C          2.30920       -0.35057       -0.09737
H          0.63633       -1.44842       -0.94398
C          2.78428        0.66098        0.74877
H          2.22457        2.24845        2.11408
O          3.40254       -0.97484       -0.62795
N          4.17232        0.64499        0.72504
C          4.44783       -0.31394       -0.08062
Cl         5.98212       -0.85326       -0.54497
O         -2.35739        1.81550        0.22423
C         -1.91348        2.65556       -0.55898
O         -0.93000        2.41942       -1.38298
C         -2.46314        4.03735       -0.62113
H         -1.69839        4.73939       -0.25572
H         -2.67851        4.30377       -1.66521
H         -3.36555        4.11224       -0.00617
H         -0.56168        1.52707       -1.17569
Pd        -1.85027       -0.19206        0.17627
O         -3.71131       -1.39119       -0.05509
C         -2.95454       -2.38755       -0.07317
O         -1.68826       -2.20774        0.01508
C         -3.47728       -3.78525       -0.16468
H         -3.47137       -4.23072        0.84198
H         -4.50524       -3.78217       -0.54621
H         -2.82353       -4.39480       -0.80239
