32
Benzoisoxazole_H8_Int2_Sub30.log	Energy: -642136.4883797
C          0.44373       -0.58522       -0.13984
C          1.54163       -0.11335        0.61181
C          0.72051       -1.60298       -1.05097
C          2.82057       -0.64716        0.41860
C          1.77392        0.86299        1.63603
C          2.02477       -2.11750       -1.22165
H         -0.09371       -2.03221       -1.64019
C          3.12338       -1.66105       -0.49959
O          3.69282       -0.03617        1.23961
H          1.05884        1.52596        2.12288
N          3.02536        0.90042        1.99085
H          2.17951       -2.91489       -1.95429
C          4.51365       -2.18714       -0.66076
O         -0.67280        2.06053        0.07393
C          0.06125        2.55757       -0.78199
O          0.61568        1.87339       -1.74275
C          0.40548        4.00511       -0.76331
H          0.43662        4.40454       -1.78516
H         -0.30958        4.55498       -0.14260
H          1.41456        4.10812       -0.33330
H          0.45334        0.91187       -1.58285
Pd        -1.36748        0.11231        0.07860
O         -3.57369        0.13980        0.31182
C         -3.50354       -1.10843        0.23939
O         -2.35812       -1.65687        0.07039
C         -4.70832       -1.98345        0.37276
H         -5.62110       -1.40269        0.19430
H         -4.64070       -2.83191       -0.32087
H         -4.73771       -2.38971        1.39546
H          4.89065       -2.60525        0.28598
H          5.21075       -1.38553       -0.95199
H          4.55204       -2.97417       -1.42576
