32
Benzoisoxazole_H8_deriv1_Int2_Sub2.log	Energy: -930457.3084984
C          0.59092        0.30418       -0.19232
C          1.52600       -0.32532       -1.03744
C          1.07097        1.40477        0.51445
C          2.83379        0.15441       -1.15026
C          1.53731       -1.45455       -1.91933
C          2.40086        1.90612        0.40343
Cl        -0.00577        2.21923        1.62242
C          3.29636        1.26527       -0.44729
O          3.52405       -0.61590       -2.00476
H          0.72674       -2.14204       -2.16147
N          2.70285       -1.61451       -2.47463
C          2.82672        3.10439        1.19325
H          4.32278        1.61789       -0.55558
O         -0.68432       -2.16106        0.66163
C          0.16013       -2.42266        1.51891
O          0.97902       -1.54463        2.02394
C          0.32748       -3.80561        2.04521
H          0.40539       -3.78200        3.14061
H         -0.50863       -4.43506        1.72428
H          1.27250       -4.21568        1.65683
H          0.87751       -0.68944        1.54070
Pd        -1.25994       -0.33055       -0.09777
O         -3.43635       -0.40258       -0.32553
C         -3.34413        0.75690       -0.79769
O         -2.18680        1.29411       -0.88215
C         -4.53476        1.52092       -1.27701
H         -5.45889        1.00869       -0.98497
H         -4.51065        2.54109       -0.86986
H         -4.48997        1.60271       -2.37341
H          3.87717        3.35383        0.99385
H          2.70343        2.92985        2.27335
H          2.20334        3.97767        0.94591
