33
Benzothiophene_H9_Int2_Sub14.log	Energy: -834721.5459259
C         -0.65961       -0.00404        0.47953
C         -1.28174       -1.02880       -0.25354
C         -1.45076        0.70221        1.38333
C         -2.65672       -1.33512       -0.09570
S         -0.53737       -2.05463       -1.44758
C         -2.82121        0.41195        1.57933
H         -1.00134        1.51095        1.96831
C         -3.41272       -0.60069        0.83474
C         -3.06283       -2.40181       -0.96722
C         -2.03939       -2.86444       -1.73669
C         -3.60805        1.19919        2.58741
H         -4.47335       -0.83014        0.96802
H         -4.07801       -2.79918       -1.00798
H         -2.07980       -3.66721       -2.47279
O          0.89655        2.30886       -0.38065
C          0.03200        2.75054       -1.13671
O         -1.00023        2.06884       -1.54509
C          0.09575        4.14655       -1.65543
H          1.03699        4.61781       -1.35526
H         -0.00148        4.13603       -2.75021
H         -0.75769        4.71594       -1.25797
H         -1.02706        1.20262       -1.06967
Pd         1.24537        0.36823        0.23919
O          3.44394        0.03703        0.21435
C          3.17649       -1.12259        0.60414
O          1.95250       -1.45500        0.77843
C          4.23982       -2.13432        0.89179
H          5.21163       -1.77959        0.52912
H          4.29168       -2.30005        1.97840
H          3.97721       -3.09375        0.42530
H         -3.54103        2.28120        2.39201
H         -3.22443        1.03219        3.60684
H         -4.67059        0.91894        2.57838
