34
Benzofuran_H13_deriv1_Int2_Sub32.log	Energy: -967578.0966173
C          0.02219       -0.46548        0.34408
C          1.39512       -0.09473        0.04089
C          0.15699       -1.63848        1.03222
C          2.21026       -1.11145        0.57218
C          2.01257        0.97542       -0.61066
Cl        -1.01377       -2.66700        1.72096
O          1.44311       -2.05619        1.17766
C          3.59036       -1.12792        0.47960
C          3.39972        0.99252       -0.71979
H          1.41196        1.79519       -1.00814
C          4.18599       -0.04897       -0.18349
H          4.20198       -1.92717        0.89732
H          3.87783        1.83192       -1.22425
O          5.53392       -0.08489       -0.26222
O         -2.73631       -0.91613       -0.58904
C         -2.42392       -1.85205       -1.32717
O         -1.20896       -2.07609       -1.73344
C         -3.43884       -2.83548       -1.79503
H         -4.44738       -2.43036       -1.66258
H         -3.25185       -3.10817       -2.84172
H         -3.32909       -3.74702       -1.18677
H         -0.59662       -1.47737       -1.22689
Pd        -1.55868        0.65029        0.02302
O         -2.82351        2.43466       -0.10044
C         -1.82494        3.07167        0.31137
O         -0.73780        2.43230        0.53212
C         -1.87189        4.54015        0.58008
H         -0.91973        5.00882        0.29897
H         -2.71005        4.99748        0.04075
H         -2.01668        4.69598        1.66022
C          6.20695        0.96226       -0.89969
H          5.91912        1.05276       -1.96236
H          6.02926        1.93191       -0.40136
H          7.27764        0.72761       -0.84319
