42
Benzofuran_H9_Int2_Sub20.log	Energy: -706046.9622677
C         -0.49093        1.15523        0.34483
C          0.87255        1.10985        0.04933
C         -0.94488        2.37334        0.86817
C          1.76956        2.17326        0.26379
O          1.54423        0.03970       -0.45051
C         -0.07480        3.45634        1.09172
H         -2.00848        2.48944        1.09132
C          1.28097        3.37402        0.79680
C          3.05534        1.67468       -0.15340
C          2.85618        0.39332       -0.57059
H         -0.48199        4.38314        1.50330
H          1.94718        4.22058        0.97641
H          4.00322        2.20615       -0.14229
C          3.76118       -0.66375       -1.13015
O         -0.48953       -1.73215        0.84216
C          0.13047       -1.64240        1.90036
O          0.21401       -0.54844        2.60470
C          0.87089       -2.80416        2.46694
H          0.57029       -3.72603        1.95859
H          1.94743       -2.63365        2.31344
H          0.69603       -2.87318        3.54882
H         -0.19224        0.19493        2.09296
Pd        -1.72888       -0.32179       -0.01444
O         -3.54805       -1.37682       -0.72164
C         -3.94516       -0.24796       -1.09117
O         -3.20427        0.77349       -0.87491
C         -5.24567       -0.05636       -1.80448
H         -5.73070        0.86941       -1.46778
H         -5.04591        0.04415       -2.88235
H         -5.89860       -0.92235       -1.64272
C          5.19953       -0.15067       -1.14468
H          5.87035       -0.92147       -1.55298
H          5.29703        0.74745       -1.77310
H          5.54675        0.09927       -0.13053
C          3.66066       -1.92121       -0.25455
H          2.62757       -2.29802       -0.23260
H          4.30774       -2.71735       -0.65409
H          3.97874       -1.70680        0.77801
C          3.30737       -0.99825       -2.55900
H          3.94076       -1.79243       -2.98431
H          2.26395       -1.34510       -2.56798
H          3.37870       -0.11380       -3.20978
