33
Benzothiophene_H13_Int2_Sub9.log	Energy: -1021464.0351329
C          0.43952        0.06204       -0.97843
C          1.62930       -0.41475       -0.28839
C          0.70973        0.30485       -2.30017
C          2.74053       -0.51626       -1.16955
C          1.85544       -0.76342        1.06778
H          0.00299        0.64493       -3.05796
S          2.34107       -0.02960       -2.78372
C          4.00235       -0.95286       -0.75532
C          3.10914       -1.19891        1.47381
C          0.77054       -0.66320        2.10702
C          4.17765       -1.29900        0.57212
H          4.82712       -1.01742       -1.46824
H          3.26201       -1.46491        2.51966
H          5.15078       -1.64687        0.92409
O         -1.34168        2.10778        0.32239
C         -0.46474        2.96953        0.30337
O          0.67085        2.84137       -0.31868
C         -0.63713        4.25734        1.03361
H         -1.69034        4.40280        1.29545
H         -0.03846        4.20849        1.95662
H         -0.25593        5.09321        0.43271
H          0.71113        1.94224       -0.73997
Pd        -1.42499        0.16341       -0.35185
O         -3.48682       -0.47299        0.02760
C         -3.14346       -1.58318       -0.44581
O         -1.94765       -1.72523       -0.87606
C         -4.07552       -2.75002       -0.49201
H         -3.92252       -3.32222       -1.41648
H         -3.84853       -3.41474        0.35564
H         -5.11447       -2.40927       -0.40828
F          1.21708       -0.97655        3.32649
F         -0.25837       -1.47475        1.85227
F          0.28252        0.58684        2.19025
