30
Benzofuran_H9_Int2_Sub10.log	Energy: -895762.7756008
C         -0.53795       -0.27888       -0.11575
C         -1.51420        0.50967       -0.73087
C         -0.99806       -1.48115        0.43165
C         -2.87657        0.16223       -0.80629
O         -1.31536        1.71845       -1.32099
C         -2.35675       -1.84262        0.36767
H         -0.29282       -2.17203        0.89754
C         -3.31369       -1.04420       -0.24373
C         -3.51148        1.25107       -1.50268
C         -2.52135        2.13819       -1.77686
Cl        -2.84523       -3.35047        1.07919
H         -4.35871       -1.35374       -0.27718
H         -4.56244        1.35246       -1.76329
H         -2.52099        3.09729       -2.28961
O          1.09824        2.12498        0.33955
C          0.33076        2.60794        1.16948
O         -0.51929        1.90535        1.86682
C          0.29410        4.07242        1.43365
H          1.19498        4.54910        1.03375
H         -0.59259        4.48651        0.92883
H          0.18535        4.26434        2.50901
H         -0.51291        0.97611        1.53428
Pd         1.38241        0.12972       -0.07686
O          3.56122       -0.20444       -0.18887
C          3.27641       -1.40415       -0.41111
O          2.04362       -1.75188       -0.42992
C          4.32287       -2.43536       -0.68325
H          4.04775       -3.38840       -0.21255
H          4.37898       -2.60286       -1.76981
H          5.29964       -2.08825       -0.32577
