35
Benzofuran_H13_deriv1_Int2_Sub31.log	Energy: -955122.3398572
C         -0.01196       -0.45815       -0.35760
C         -1.38427       -0.07999       -0.06347
C         -0.14602       -1.62869       -1.04987
C         -2.20128       -1.08839       -0.60408
C         -2.00742        0.98823        0.58921
Cl         1.02439       -2.66421       -1.73117
O         -1.43554       -2.03722       -1.20651
C         -3.58248       -1.10001       -0.52406
C         -3.39176        1.00877        0.68832
H         -1.40837        1.80285        1.00007
C         -4.19799       -0.02197        0.13837
H         -4.16598       -1.90961       -0.96647
H         -3.87083        1.84575        1.19688
N         -5.56811        0.02691        0.22643
O          2.72224       -0.93509        0.62900
C          2.38437       -1.87040        1.35645
O          1.15796       -2.09056        1.72793
C          3.38207       -2.85858        1.85183
H          4.39538       -2.45621        1.75102
H          3.16292       -3.13368        2.89162
H          3.28815       -3.76793        1.23770
H          0.56119       -1.49072        1.20230
Pd         1.57448        0.64151       -0.01532
O          2.85605        2.41776        0.12211
C          1.87032        3.05992       -0.31174
O          0.78225        2.42941       -0.55045
C          1.93332        4.52735       -0.58557
H          0.98785        5.00723       -0.30031
H          2.77902        4.97693       -0.05164
H          2.07226        4.67878       -1.66703
H         -6.06076       -0.81571       -0.02842
C         -6.27937        0.98944        1.01213
H         -7.35662        0.78978        0.93637
H         -6.11243        2.01731        0.64631
H         -6.00436        0.96909        2.08506
