30
Benzofuran_H13_Int2_Sub18.log	Energy: -895761.1793045
C          0.27979        0.29054       -0.40752
C          1.34077       -0.47940        0.21929
C          0.93339        1.17780       -1.21705
C          2.53897        0.05525       -0.28587
C          1.38584       -1.54169        1.13237
H          0.57378        1.94495       -1.89975
O          2.28968        1.05661       -1.15416
C          3.78930       -0.42400        0.09966
C          2.63095       -2.02318        1.51475
H          0.46025       -1.98168        1.50594
C          3.82225       -1.47382        1.01059
Cl         5.23183        0.27148       -0.54314
H          2.69715       -2.85347        2.22134
H          4.79131       -1.86558        1.32373
O         -2.12710        1.94183       -0.17531
C         -1.62000        2.79724        0.55366
O         -0.50142        2.62422        1.19560
C         -2.26336        4.12540        0.75421
H         -3.22559        4.16201        0.23383
H         -2.40001        4.30302        1.83063
H         -1.59333        4.91242        0.37784
H         -0.09299        1.77462        0.88066
Pd        -1.63970       -0.05773       -0.24506
O         -3.53180       -1.16484       -0.09331
C         -2.83223       -2.20304       -0.15593
O         -1.55978       -2.08252       -0.24048
C         -3.43229       -3.57088       -0.16383
H         -2.81514       -4.25938        0.42837
H         -4.45950       -3.53675        0.21825
H         -3.44786       -3.94340       -1.19957
