32
Benzoisoxazole_H11_Int2_Sub17.log	Energy: -828879.0918939
C          0.01928       -0.31240       -0.00925
C         -0.95638        0.60691       -0.42752
C         -0.50050       -1.52188        0.45819
C         -2.33402        0.37121       -0.37289
O         -0.75331        1.85075       -0.91330
C         -1.88225       -1.79277        0.51965
H          0.19831       -2.30063        0.77327
C         -2.81615       -0.85669        0.10916
C         -2.89210        1.59376       -0.86655
N         -1.96038        2.44734       -1.17233
H         -2.22249       -2.75880        0.89589
C         -4.29217       -1.11064        0.16769
H         -3.93815        1.86778       -0.99995
O          1.92472        1.93600       -0.16788
C          1.34609        2.65102        0.64927
O          0.72915        2.17519        1.69940
C          1.26938        4.12352        0.48339
H          1.27322        4.63052        1.45592
H          2.08570        4.47240       -0.15781
H          0.30947        4.33459       -0.01586
H          0.74188        1.19434        1.64491
Pd         1.97491       -0.11173       -0.10200
O          4.09275       -0.69271       -0.19009
C          3.68780       -1.87701       -0.14155
O          2.42608       -2.08777       -0.05112
C          4.61642       -3.04347       -0.21600
H          4.26524       -3.85189        0.43855
H          4.62010       -3.42500       -1.24868
H          5.63422       -2.73521        0.05118
F         -4.57871       -2.31783        0.65135
F         -4.85019       -1.01574       -1.04601
F         -4.90868       -0.20653        0.94167
