34
Benzo13dioxol_H8_deriv1_Int2_Sub24.log	Energy: -990864.7193726
C          0.00590       -0.58461       -0.10815
C         -1.28442       -0.31829       -0.54442
C          0.24873       -1.92091        0.27826
C         -2.27377       -1.29659       -0.60435
O         -1.83085        0.86395       -0.96395
C         -0.75368       -2.88668        0.22795
H          1.25030       -2.21255        0.59832
C         -2.05297       -2.60197       -0.22013
O         -3.42332       -0.74686       -1.08147
C         -3.20934        0.64262       -1.22635
Cl        -0.39079       -4.51147        0.72110
H         -2.82937       -3.36439       -0.26480
O         -4.01004        1.38119       -0.41118
H         -3.43915        0.95620       -2.25574
O          0.38355        2.34183       -0.08860
C         -0.48784        2.55098        0.75231
O         -0.73674        1.72293        1.73592
C         -1.36100        3.75038        0.69901
H         -0.88145        4.53855        0.10906
H         -2.29124        3.44004        0.19481
H         -1.61221        4.09962        1.70811
H         -0.21156        0.90215        1.58258
Pd         1.54555        0.64977       -0.12673
O          3.64416        1.31446       -0.18916
C          3.94315        0.09805       -0.20240
O          2.99737       -0.76536       -0.15433
C          5.35536       -0.37738       -0.30113
H          5.50097       -1.26619        0.32684
H          5.55783       -0.66733       -1.34361
H          6.04648        0.42400       -0.01401
C         -4.04862        0.99782        0.95187
H         -4.45608       -0.01839        1.06323
H         -3.05272        1.04771        1.41902
H         -4.71573        1.70876        1.45432
