32
Benzoisoxazole_H11_deriv1_Int2_Sub9.log	Energy: -1117196.2722317
C          0.18334       -0.07151       -0.10326
C         -0.64950        1.00402       -0.44194
C         -0.50155       -1.23647        0.23865
C         -2.04957        0.95518       -0.42692
O         -0.26103        2.24441       -0.80521
C         -1.90829       -1.31726        0.25624
H          0.06278       -2.13764        0.48732
C         -2.71770       -0.23144       -0.07239
C         -2.41398        2.29030       -0.81171
N         -1.36352        3.02544       -1.02196
Cl        -2.60146       -2.83767        0.70655
C         -4.22240       -0.31688       -0.04550
H         -3.40414        2.72354       -0.93387
O          2.39311        1.88986       -0.08046
C          1.91806        2.62566        0.78396
O          1.23920        2.17403        1.80631
C          2.04755        4.10175        0.71202
H          2.11823        4.54059        1.71463
H          2.90697        4.37345        0.09004
H          1.12841        4.47565        0.23173
H          1.12400        1.20536        1.69545
Pd         2.15067       -0.14351       -0.14156
O          4.16312       -1.01214       -0.22001
C          3.59556       -2.12848       -0.25399
O          2.31395       -2.16009       -0.20539
C          4.35105       -3.40901       -0.37780
H          3.87676       -4.18983        0.23113
H          4.31837       -3.73706       -1.42816
H          5.39705       -3.26199       -0.08374
F         -4.68435       -1.23662       -0.89076
F         -4.77589        0.85210       -0.39588
F         -4.68110       -0.61681        1.16927
