34
Benzofuran_H9_deriv1_Int2_Sub32.log	Energy: -967582.2150310
C          0.08949        0.70743       -0.03817
C          1.36301        0.32331       -0.44304
C         -0.05582        2.06468        0.28357
C          2.47419        1.18427       -0.53075
O          1.74483       -0.94657       -0.78921
C          1.03785        2.94289        0.20324
H         -1.02997        2.45783        0.57937
C          2.30579        2.53437       -0.19782
C          3.57576        0.36985       -0.97076
C          3.05922       -0.88612       -1.09905
Cl         0.78969        4.61145        0.62255
H          3.12879        3.24796       -0.24423
H          4.60251        0.66176       -1.16923
O          3.64806       -2.01385       -1.45171
O         -0.37907       -1.98538        0.99766
C          0.37975       -1.85028        1.95637
O          0.73226       -0.69639        2.44944
C          0.99068       -3.02774        2.63387
H          0.48169       -3.94659        2.32513
H          2.05288       -3.07756        2.34776
H          0.94990       -2.90075        3.72387
H          0.39338        0.02294        1.86259
Pd        -1.44830       -0.50863        0.03144
O         -3.50614       -1.25955       -0.24931
C         -3.74148       -0.15075       -0.78394
O         -2.79870        0.71282       -0.85568
C         -5.07622        0.18716       -1.36502
H         -5.33031        1.23291       -1.14688
H         -5.02336        0.07823       -2.45913
H         -5.84328       -0.49231       -0.97490
C          2.83022       -3.14008       -1.70692
H          2.26067       -3.43495       -0.81210
H          2.11968       -2.94036       -2.52405
H          3.50996       -3.94936       -1.99708
