33
Benzo13dioxol_H8_Int2_Sub22.log	Energy: -655371.7134188
C         -0.53346        0.51813        0.62077
C         -1.64977        0.07815       -0.07383
C         -0.79603        1.38019        1.71266
C         -2.95105        0.45037        0.27400
O         -1.69902       -0.71586       -1.17665
C         -2.09276        1.75477        2.05772
H          0.04139        1.75725        2.30547
C         -3.20759        1.29117        1.33814
O         -3.82685       -0.12023       -0.59027
C         -3.06903       -1.04124       -1.37613
H         -2.24947        2.41852        2.91115
H         -4.22712        1.57680        1.59960
H         -3.31450       -0.86625       -2.43659
C         -3.34590       -2.46124       -0.95362
O          2.04946        1.68514       -0.18546
C          1.54035        2.65949       -0.73944
O          0.27200        2.75963       -1.01371
C          2.36053        3.83700       -1.14321
H          3.42133        3.63850       -0.96034
H          2.18524        4.05811       -2.20563
H          2.03340        4.71663       -0.56913
H         -0.20226        1.98442       -0.61418
Pd         1.24802       -0.17901        0.19329
O          2.87682       -1.65041       -0.09306
C          2.02216       -2.51597        0.20831
O          0.82772       -2.14479        0.47549
C          2.35956       -3.97100        0.29136
H          2.44705       -4.25558        1.35103
H          1.55191       -4.57152       -0.14819
H          3.31254       -4.16928       -0.21337
H         -4.41226       -2.69318       -1.08397
H         -3.07195       -2.59297        0.10337
H         -2.74712       -3.15381       -1.56132
