30
Benzene_H10_Int2_Sub8.log	Energy: -825451.5323819
C         -0.43237       -0.41241       -0.35391
C         -1.45857        0.23235        0.35078
C         -0.75570       -1.48560       -1.19399
C         -2.78517       -0.19747        0.24598
H         -1.21884        1.10160        0.97022
C         -2.08260       -1.90458       -1.31485
H          0.02478       -1.98988       -1.77037
C         -3.09122       -1.27205       -0.59618
C         -3.84633        0.47903        1.06296
H         -2.33016       -2.73328       -1.98348
H         -4.13059       -1.59095       -0.70357
O          2.22635       -1.59850       -0.28739
C          1.95393       -2.50866        0.49515
O          0.95982       -2.45751        1.33892
C          2.74308       -3.77045        0.53574
H          3.62893       -3.68155       -0.10106
H          3.02914       -3.99474        1.57279
H          2.10784       -4.59807        0.18564
H          0.43157       -1.64622        1.14364
Pd         1.38623        0.29446       -0.20511
O          3.02471        1.80019       -0.01347
C          2.10723        2.64920        0.03455
O          0.88887        2.25512       -0.01911
C          2.38304        4.11669        0.12274
H          3.40606        4.29054        0.47706
H          2.27307        4.55717       -0.88012
H          1.65140        4.60258        0.78169
Cl        -5.30514        0.90278        0.11035
H         -4.19617       -0.17063        1.87876
H         -3.46597        1.41015        1.50222
