36
Benzothiophene_H9_deriv1_Int2_Sub22.log	Energy: -859374.7002750
C         -0.39142        0.23493        0.54921
C         -1.27818       -0.61930       -0.12660
C         -0.94036        1.12232        1.47335
C         -2.67451       -0.58513        0.10537
S         -0.86632       -1.80626       -1.33172
C         -2.32707        1.17093        1.74349
H         -0.27973        1.80689        2.01467
C         -3.18221        0.31967        1.05290
C         -3.38842       -1.53339       -0.71678
C         -2.53491       -2.23063       -1.52121
C         -2.84945        2.13461        2.76995
H         -4.25776        0.35534        1.24591
C         -4.87052       -1.71067       -0.67212
H         -2.80866       -3.00835       -2.23482
O          1.59393        2.07994       -0.51878
C          0.80635        2.67984       -1.24936
O         -0.37911        2.24191       -1.56510
C          1.15548        4.00106       -1.84518
H          2.19461        4.25611       -1.61437
H          0.99706        3.96617       -2.93235
H          0.47713        4.76743       -1.44154
H         -0.57442        1.42207       -1.04858
Pd         1.52957        0.14201        0.19673
O          3.58896       -0.69069        0.08438
C          3.08738       -1.73696        0.55557
O          1.83327       -1.76792        0.81002
C          3.90618       -2.95396        0.84878
H          4.91429       -2.84475        0.43223
H          3.97074       -3.08865        1.93894
H          3.41029       -3.84381        0.43703
H         -2.52741        3.16544        2.55320
H         -2.47284        1.88493        3.77508
H         -3.94762        2.12459        2.81114
H         -5.39218       -0.77207       -0.92127
H         -5.20517       -2.00838        0.33504
H         -5.20369       -2.48124       -1.38061
