35
Benzothiophene_H9_Int2_Sub15.log	Energy: -869430.5738656
C         -0.54029       -0.09930        0.35055
C         -0.97270       -1.28282       -0.26139
C         -1.47179        0.64745        1.06852
C         -2.32173       -1.71671       -0.16205
S         -0.01038       -2.39182       -1.20862
C         -2.82276        0.23195        1.19681
H         -1.15018        1.57315        1.54821
C         -3.23604       -0.95171        0.56934
C         -2.52641       -2.94615       -0.87985
C         -1.39091       -3.40000       -1.47777
N         -3.73013        0.98911        1.90067
H         -4.27722       -1.27622        0.64788
H         -3.48623       -3.46152       -0.93871
H         -1.28128       -4.30555       -2.07450
O          0.74149        2.07832       -1.04009
C         -0.10580        2.15639       -1.92906
O         -0.97758        1.22965       -2.20357
C         -0.20914        3.36992       -2.79002
H          0.62360        4.05019       -2.58510
H         -0.21716        3.07185       -3.84778
H         -1.16679        3.87166       -2.58523
H         -0.92524        0.50007       -1.53742
Pd         1.31030        0.48619        0.14758
O          3.52775        0.52938        0.35955
C          3.38242       -0.49778        1.06080
O          2.20549       -0.96101        1.25524
C          4.54063       -1.20546        1.69081
H          5.48553       -0.75038        1.37200
H          4.44833       -1.14775        2.78541
H          4.51510       -2.26965        1.41680
H         -4.60107        0.52917        2.12219
C         -3.35223        2.08913        2.73761
H         -4.24698        2.48556        3.23612
H         -2.91628        2.91506        2.14984
H         -2.61782        1.81469        3.52001
