41
Benzoisoxazole_H10_Int2_Sub20.log	Energy: -716083.1497129
C          0.02917        0.26660       -0.32454
C          0.87039       -0.74027        0.21082
C          0.56550        1.39604       -0.93762
C          2.26081       -0.67124        0.17946
H          0.38595       -1.61717        0.63986
C          1.95771        1.46213       -0.97376
H         -0.04668        2.18492       -1.37764
C          2.80360        0.48299       -0.43718
C          3.15122       -1.76893        0.75560
O          2.68968        2.45392       -1.50838
C          4.10067        1.02748       -0.72647
N          4.02116        2.16814       -1.34629
H          5.09026        0.62979       -0.50630
O         -2.28342        1.97336        0.07330
C         -1.82679        2.62296        1.01439
O         -0.91299        2.16467        1.82551
C         -2.27382        4.01384        1.29718
H         -2.47719        4.13072        2.37032
H         -1.45477        4.70345        1.04103
H         -3.16040        4.25333        0.70145
H         -0.59569        1.29998        1.47293
Pd        -1.90039       -0.03787       -0.23571
O         -3.83503       -1.14509       -0.25992
C         -3.13783       -2.17191       -0.41704
O         -1.86157       -2.05834       -0.45260
C         -3.74369       -3.52747       -0.59499
H         -4.77743       -3.53266       -0.22938
H         -3.74365       -3.77580       -1.66746
H         -3.14030       -4.28483       -0.07739
C          2.33132       -2.90893        1.36143
H          3.00995       -3.67763        1.76103
H          1.69762       -2.56085        2.19104
H          1.68373       -3.39027        0.61356
C          4.02288       -2.35280       -0.36682
H          4.66892       -1.59537       -0.83186
H          4.67181       -3.14888        0.03106
H          3.39552       -2.78701       -1.15986
C          4.03791       -1.17742        1.86192
H          4.68768       -1.95867        2.28686
H          4.68446       -0.36897        1.49354
H          3.42239       -0.76590        2.67640
