30
Benzo13dioxol_H8_deriv1_Int2_Sub26.log	Energy: -1207364.1913905
C         -0.40382       -0.35119       -0.18717
C         -1.17929        0.59991        0.45454
C         -1.12805       -1.33473       -0.89665
C         -2.57077        0.59894        0.40990
O         -0.78742        1.63657        1.26139
C         -2.52275       -1.32600       -0.93736
H         -0.59778       -2.11974       -1.43941
C         -3.29136       -0.35182       -0.28114
O         -3.02850        1.63406        1.16987
C         -1.91216        2.41960        1.43880
Cl        -3.34777       -2.56119       -1.83354
H         -4.37974       -0.35306       -0.31700
H         -1.95597        2.83305        2.45228
Cl        -1.87458        3.83870        0.30733
O          1.78319       -2.22009        0.32918
C          1.21500       -2.81312        1.24639
O          0.21623       -2.31270        1.91844
C          1.62406       -4.18327        1.66071
H          2.55264       -4.46824        1.15607
H          1.74442       -4.21982        2.75228
H          0.82056       -4.88740        1.39624
H         -0.05566       -1.46735        1.48706
Pd         1.55557       -0.24300       -0.21868
O          3.56887        0.57187       -0.49911
C          2.99829        1.64759       -0.80452
O          1.72014        1.69070       -0.77988
C          3.75647        2.86616       -1.21643
H          3.67545        2.98206       -2.30795
H          3.31261        3.75819       -0.75451
H          4.81327        2.76708       -0.94177
