33
Benzofuran_H9_deriv1_Int2_Sub30.log	Energy: -920419.3126588
C          0.28258        0.54071       -0.03707
C          1.50076        0.03609       -0.49583
C          0.30578        1.87680        0.38123
C          2.69680        0.77761       -0.53872
O          1.73208       -1.22961       -0.93773
C          1.49146        2.63134        0.34605
H         -0.61445        2.35763        0.71813
C          2.69651        2.10998       -0.10832
C          3.68846       -0.12893       -1.05454
C          3.05069       -1.31158       -1.27284
Cl         1.43909        4.28165        0.88906
H          3.59798        2.72334       -0.12209
H          4.74071        0.07371       -1.24054
C          3.50870       -2.61775       -1.79490
O         -0.58679       -2.20628        0.57805
C          0.22900       -2.36130        1.48413
O          0.77119       -1.37886        2.14936
C          0.69257       -3.71759        1.88676
H          0.00394       -4.47878        1.50570
H          1.69034       -3.87778        1.44896
H          0.79314       -3.78065        2.97797
H          0.51075       -0.52574        1.72599
Pd        -1.42297       -0.43374       -0.05067
O         -3.58880       -0.79219       -0.30385
C         -3.65932        0.41498       -0.63128
O         -2.58984        1.11989       -0.62514
C         -4.94243        1.05263       -1.05591
H         -5.00464        2.07655       -0.66433
H         -4.95973        1.11360       -2.15490
H         -5.79499        0.45102       -0.71893
H          2.95295       -2.89298       -2.70517
H          3.34568       -3.42001       -1.05714
H          4.57842       -2.57756       -2.03481
