33
Benzofuran_H9_deriv1_Int2_Sub14.log	Energy: -920415.2931908
C         -0.35720       -0.16966       -0.09471
C         -1.24177        0.72482       -0.70192
C         -0.95954       -1.30255        0.45980
C         -2.63677        0.54327       -0.75888
O         -0.90495        1.89880       -1.29937
C         -2.35120       -1.49507        0.41190
H         -0.34336       -2.07596        0.92229
C         -3.23491       -0.59726       -0.19048
C         -3.14192        1.70136       -1.45355
C         -2.05589        2.46136       -1.74325
Cl        -2.99395       -2.93938        1.14120
C         -4.71113       -0.83228       -0.22813
H         -4.17351        1.93479       -1.70567
H         -1.94565        3.41175       -2.26022
O          1.56985        2.01483        0.32336
C          0.87413        2.59140        1.15690
O         -0.05262        2.00223        1.86094
C          1.02363        4.04949        1.41766
H          1.97482        4.40851        1.01132
H          0.19295        4.57089        0.91704
H          0.94656        4.25537        2.49318
H         -0.16747        1.07958        1.52628
Pd         1.59979       -0.00215       -0.08448
O          3.72015       -0.60622       -0.22173
C          3.28455       -1.76206       -0.43105
O          2.01814       -1.95398       -0.43189
C          4.19080       -2.91760       -0.70827
H          3.80602       -3.82572       -0.22575
H          4.21024       -3.09837       -1.79398
H          5.20814       -2.69243       -0.36670
H         -4.94646       -1.76957       -0.75643
H         -5.23689       -0.01066       -0.73110
H         -5.12003       -0.93645        0.78904
