39
Benzothiophene_H9_Int2_Sub21.log	Energy: -884022.4945134
C         -0.35682       -0.71804        0.95129
C          0.98587       -0.41893        0.67224
C         -0.60231       -1.74648        1.86482
C          2.06485       -1.11982        1.27020
S          1.56705        0.80074       -0.42612
C          0.45304       -2.44311        2.47904
H         -1.63308       -2.01582        2.11069
C          1.77572       -2.14230        2.18871
C          3.33433       -0.63731        0.80336
C          3.23318        0.37506       -0.10513
H          0.22242       -3.23709        3.19371
H          2.59034       -2.69340        2.66460
H          4.28680       -1.04197        1.14666
C          4.32743        1.12137       -0.81728
O         -2.55922       -1.36374       -0.84333
C         -1.97286       -2.28499       -1.41054
O         -0.68800       -2.48725       -1.34141
C         -2.71150       -3.27835       -2.24106
H         -3.75881       -2.97785       -2.34599
H         -2.23089       -3.36462       -3.22569
H         -2.64713       -4.26539       -1.75909
H         -0.29348       -1.86084       -0.68602
Pd        -1.79300        0.30462        0.10481
O         -3.06126        2.04389       -0.45393
C         -2.28816        2.71599        0.26645
O         -1.31285        2.12912        0.85184
C         -2.47336        4.18429        0.48399
H         -3.22021        4.58176       -0.21317
H         -2.81014        4.35310        1.51791
H         -1.51267        4.70328        0.36247
H          4.16073        2.19691       -0.62143
C          5.70643        0.75898       -0.28181
H          6.47979        1.36115       -0.78122
H          5.78109        0.93903        0.80066
H          5.93806       -0.30147       -0.46969
C          4.24694        0.91076       -2.33158
H          3.26452        1.20480       -2.72997
H          5.01615        1.50551       -2.84772
H          4.40576       -0.15009       -2.58168
