39
Benzofuran_H13_deriv1_Int2_Sub21.log	Energy: -969712.4050286
C          0.36313       -0.72225       -0.39962
C         -1.05365       -1.00046       -0.23117
C          0.84623       -1.87516       -0.95562
C         -1.25926       -2.31173       -0.69182
C         -2.14283       -0.26965        0.25248
Cl         2.42317       -2.29552       -1.44520
O         -0.08559       -2.84371       -1.13345
C         -2.49780       -2.93400       -0.68210
C         -3.40722       -0.85989        0.27102
H         -1.99057        0.75974        0.58269
C         -3.56321       -2.18222       -0.19175
H         -2.62611       -3.95510       -1.04423
C         -4.60885       -0.07854        0.76513
H         -4.56025       -2.63047       -0.16935
O          2.91568        0.23512        0.71701
C          2.99375       -0.67644        1.54252
O          1.97872       -1.39768        1.91846
C          4.29592       -1.04516        2.16217
H          5.02063       -0.23513        2.03010
H          4.15822       -1.28942        3.22341
H          4.66462       -1.95061        1.65501
H          1.21064       -1.18751        1.32251
Pd         1.21149        1.02326       -0.11277
O          1.48288        3.19765       -0.10167
C          0.34471        3.26172       -0.62374
O         -0.29323        2.17226       -0.83876
C         -0.27725        4.55847       -1.02628
H         -1.35409        4.54509       -0.81192
H          0.21547        5.39175       -0.51130
H         -0.15436        4.68657       -2.11268
H         -5.47793       -0.75628        0.70677
C         -4.45066        0.34406        2.22490
H         -5.35622        0.85664        2.58595
H         -4.26563       -0.52471        2.87431
H         -3.60458        1.03894        2.34772
C         -4.89702        1.12293       -0.13502
H         -5.05077        0.81017       -1.17855
H         -5.79845        1.65978        0.20058
H         -4.05665        1.83545       -0.12431
