33
Benzofuran_H14_Int2_Sub9.log	Energy: -818840.6251022
C         -0.18987        0.10655       -0.32936
C          0.85129       -0.63366        0.16810
O          0.28439        1.17051       -1.05937
C          2.05756        0.00178       -0.28684
H          0.75772       -1.53652        0.76579
C          1.63685        1.11014       -1.04197
C          3.43694       -0.22562       -0.14442
C          2.50973        1.99343       -1.66265
C          4.32770        0.64859       -0.75673
C          3.91201       -1.39722        0.66194
C          3.87033        1.74352       -1.50640
H          2.13770        2.83787       -2.24491
H          5.39930        0.47514       -0.64962
H          4.59741        2.40921       -1.97576
O         -2.31097        1.93085        0.15104
C         -1.64754        2.62325        0.92355
O         -0.65319        2.17231        1.63598
C         -1.92902        4.07440        1.09735
H         -1.13056        4.64262        0.59554
H         -2.89594        4.32663        0.65033
H         -1.90322        4.33935        2.16271
H         -0.45952        1.23832        1.37851
Pd        -2.10548       -0.09400       -0.14073
O         -4.09106       -0.99469       -0.02780
C         -3.51828       -2.09242       -0.23358
O         -2.24444       -2.10177       -0.35958
C         -4.27256       -3.37395       -0.36397
H         -4.37892       -3.61292       -1.43328
H         -3.71345       -4.19281        0.10745
H         -5.27053       -3.27293        0.07894
F          5.24336       -1.47606        0.70616
F          3.45744       -2.55331        0.16330
F          3.47292       -1.32845        1.92674
