32
Benzoisoxazole_H11_Int2_Sub22.log	Energy: -642135.8790367
C         -0.45223       -0.61958        0.06160
C         -1.65624       -0.05795       -0.38949
C         -0.59945       -1.89772        0.60501
C         -2.90287       -0.68952       -0.29329
O         -1.83061        1.16166       -0.94569
C         -1.84351       -2.55404        0.70489
H          0.29618       -2.42070        0.95029
C         -3.02799       -1.97756        0.26284
C         -3.79464        0.28667       -0.84301
N         -3.16191        1.36080       -1.21392
H         -1.87194       -3.55501        1.14379
C         -4.35554       -2.66143        0.36347
H         -4.87591        0.23835       -0.97397
O          0.69745        2.08087       -0.16984
C         -0.07993        2.59053        0.63570
O         -0.55220        1.95236        1.67394
C         -0.57971        3.97822        0.46583
H         -0.74610        4.45910        1.43744
H          0.11307        4.55419       -0.15676
H         -1.54793        3.90157       -0.05548
H         -0.27672        1.00951        1.60569
Pd         1.35717        0.13999       -0.09791
O          3.56006        0.19359       -0.25167
C          3.51072       -1.05533       -0.17872
O          2.36795       -1.61979       -0.04571
C          4.73375       -1.90881       -0.27199
H          4.64993       -2.76893        0.40522
H          4.81530       -2.29698       -1.29893
H          5.62798       -1.31610       -0.04513
H         -4.81241       -2.79482       -0.63053
H         -5.06452       -2.07274        0.96806
H         -4.25888       -3.65282        0.82646
