30
Benzofuran_H14_Int2_Sub18.log	Energy: -895764.0466275
C         -0.02143       -0.63062       -0.00001
C         -0.39977       -1.89221       -0.36649
O         -1.12670        0.13110        0.30762
C         -1.83787       -1.93264       -0.29303
H          0.27992       -2.69331       -0.64638
C         -2.21373       -0.64275        0.12459
C         -2.83669       -2.88700       -0.53475
C         -3.54052       -0.26576        0.29545
C         -4.16451       -2.51466       -0.35728
H         -2.57829       -3.89778       -0.85624
C         -4.52328       -1.21951        0.05036
Cl        -3.93429        1.34440        0.79351
H         -4.95834       -3.24229       -0.54032
H         -5.57141       -0.94535        0.17872
O          0.87155        2.02815        0.29191
C          0.11785        2.48215       -0.57009
O         -0.08594        1.89835       -1.72054
C         -0.66485        3.72345       -0.34987
H         -1.67227        3.40052       -0.03809
H         -0.21432        4.31995        0.45015
H         -0.76211        4.29808       -1.27917
H          0.36016        1.02286       -1.70444
Pd         1.73389        0.16867        0.14415
O          3.91744        0.34560        0.26011
C          3.94146       -0.90379        0.15898
O          2.83065       -1.52906        0.02994
C          5.21276       -1.68503        0.21356
H          5.33131       -2.09449        1.22855
H          5.16986       -2.53044       -0.48557
H          6.06691       -1.03428       -0.00843
