35
Benzofuran_H13_deriv1_Int2_Sub23.log	Energy: -955121.3783370
C          0.05634       -0.62860       -0.37877
C         -1.37976       -0.59995       -0.14930
C          0.25126       -1.82266       -1.02026
C         -1.88295       -1.80747       -0.66349
C         -2.25316        0.31803        0.43337
Cl         1.68324       -2.53934       -1.60496
O         -0.87039       -2.55459       -1.19799
C         -3.22549       -2.13966       -0.61419
C         -3.62244        0.01347        0.49765
H         -1.87298        1.27029        0.80960
C         -4.08931       -1.21668       -0.03043
H         -3.59379       -3.08214       -1.02246
N         -4.49127        0.90848        1.08731
H         -5.15274       -1.45276        0.01372
O          2.77200       -0.35337        0.72046
C          2.64132       -1.30454        1.49306
O          1.49057       -1.79894        1.84170
C          3.82747       -1.99141        2.07458
H          4.71557       -1.35798        1.98011
H          3.63759       -2.26015        3.12175
H          3.98449       -2.92523        1.51222
H          0.78854       -1.38775        1.26682
Pd         1.30038        0.85223       -0.05151
O          2.09549        2.89598        0.02083
C          1.00372        3.25058       -0.48335
O          0.11492        2.35931       -0.71600
C          0.72104        4.67149       -0.84912
H         -0.33519        4.90921       -0.66744
H          1.37865        5.34549       -0.28703
H          0.91497        4.80301       -1.92480
H         -4.12506        1.84224        1.20409
C         -5.91516        0.79316        0.98480
H         -6.38284        1.65342        1.48260
H         -6.28421       -0.11331        1.49439
H         -6.28453        0.76072       -0.06010
