44
Benzoisoxazole_H9_deriv1_Int2_Sub6.log	Energy: -740734.9766409
C         -0.00168       -0.19336       -0.33720
C          0.54359       -1.19619       -1.14375
C          0.83462        0.74004        0.33223
C          1.95236       -1.22149       -1.21421
C         -0.26683       -2.20306       -1.90287
C          2.22689        0.73201        0.27914
H          0.34177        1.52196        0.91192
C          2.74356       -0.29853       -0.52554
C          2.92763       -2.03325       -1.87959
C          3.12081        1.73384        0.99837
O          4.04269       -0.56324       -0.77224
H          2.78073       -2.88730       -2.54061
N          4.13919       -1.64194       -1.61411
O         -2.28162       -1.80930        0.65123
C         -1.59937       -2.47370        1.43030
O         -0.37628       -2.17167        1.76376
C         -2.12899       -3.71356        2.06527
H         -3.18125       -3.85414        1.79871
H         -1.53234       -4.57425        1.72829
H         -2.01201       -3.64467        3.15616
H         -0.07881       -1.39756        1.22103
Pd        -1.93435        0.08503       -0.11271
O         -3.88621        1.16939       -0.12953
C         -3.23180        2.13827       -0.57548
O         -1.96826        2.01379       -0.74728
C         -3.87910        3.43647       -0.94158
H         -3.95905        3.49645       -2.03773
H         -4.88267        3.49803       -0.50434
H         -3.25534        4.27701       -0.60901
C          2.29982        2.74649        1.79530
H          2.97720        3.45272        2.29862
H          1.62945        3.33127        1.14727
H          1.69057        2.25958        2.57226
C          4.04652        0.97744        1.96366
H          4.68004        0.25394        1.43191
H          4.70599        1.68659        2.48852
H          3.46119        0.43283        2.72076
C          3.96110        2.49010       -0.04252
H          4.61667        3.21917        0.45944
H          4.59526        1.80624       -0.62357
H          3.31283        3.03867       -0.74284
H         -0.00319       -2.18849       -2.97224
H         -1.34195       -1.99948       -1.81771
H         -0.07663       -3.22749       -1.54004
