33
Benzoisoxazole_H9_Int2_Sub32.log	Energy: -689301.4531182
C          0.04658       -0.51046       -0.19063
C          1.18780        0.05010        0.38433
C          0.16270       -1.64943       -1.02822
C          2.42462       -0.53740        0.09111
H          1.13280        0.91475        1.04966
C          1.38727       -2.23373       -1.32986
H         -0.75073       -2.09451       -1.43083
C          2.51219       -1.64811       -0.74996
C          3.80131       -0.31351        0.43492
H          1.46818       -3.10990       -1.97478
O          3.79507       -2.02607       -0.88228
O          4.22760        0.65606        1.23010
N          4.59155       -1.18103       -0.13420
O         -1.11582        2.12077        0.27442
C         -0.55301        2.69426       -0.65859
O         -0.11314        2.07570       -1.71967
C         -0.30953        4.16256       -0.64363
H         -0.84824        4.62556        0.18922
H          0.77154        4.33913       -0.53542
H         -0.61827        4.60082       -1.60262
H         -0.20367        1.10406       -1.56659
Pd        -1.75435        0.15202        0.21042
O         -3.94273        0.10359        0.62415
C         -3.85142       -1.13273        0.45514
O         -2.71235       -1.63694        0.15304
C         -5.02112       -2.04920        0.62258
H         -4.95590       -2.52739        1.61199
H         -5.95859       -1.48369        0.56209
H         -4.99272       -2.84435       -0.13409
C          5.62305        0.70592        1.45972
H          5.97695       -0.22891        1.92149
H          6.17041        0.85212        0.51543
H          5.79601        1.55217        2.13484
