38
Benzooxazole_H10_Int2_Sub21.log	Energy: -691459.5053897
C          0.13746       -0.34109       -0.04382
C          1.16208        0.47553        0.49165
C          0.43929       -1.54039       -0.69921
C          2.51795        0.15740        0.39848
H          0.87565        1.39605        1.00460
C          1.79110       -1.84411       -0.79040
H         -0.33738       -2.20307       -1.08391
C          2.81213       -1.04181       -0.26953
C          3.63252        0.99093        0.98494
O          2.38619       -2.92336       -1.36961
N          4.03115       -1.64905       -0.54100
C          3.71072       -2.72270       -1.17243
H          4.37583       -3.48996       -1.56760
O         -1.36465        2.15271       -0.08125
C         -0.78747        2.63549       -1.05550
O         -0.19459        1.91824       -1.96947
C         -0.69459        4.10748       -1.25792
H          0.32632        4.42792       -0.99716
H         -0.85913        4.35622       -2.31460
H         -1.41441        4.62257       -0.61351
H         -0.18753        0.97728       -1.66850
Pd        -1.75014        0.13261        0.17353
O         -3.94051       -0.14535        0.50637
C         -3.67979       -1.36800        0.55152
O         -2.46944       -1.75468        0.38405
C         -4.73025       -2.39743        0.82423
H         -4.66332       -2.69888        1.88086
H         -5.72736       -1.98229        0.63517
H         -4.55472       -3.29143        0.21134
H          4.45299        0.96322        0.24697
C          3.24877        2.44589        1.21826
H          4.12666        3.02545        1.54098
H          2.85302        2.91270        0.30260
H          2.48704        2.54423        2.00825
C          4.15966        0.33929        2.26625
H          4.49925       -0.68782        2.07107
H          5.00964        0.90990        2.67232
H          3.37245        0.30211        3.03602
