39
Benzo13dioxol_H8_deriv1_Int2_Sub21.log	Energy: -992993.6646424
C         -0.12112        0.66011       -0.40109
C          1.15942        0.14912       -0.26746
C         -0.20691        2.00643       -0.82812
C          2.30299        0.90993       -0.52666
O          1.54255       -1.08096        0.16553
C          0.93917        2.75348       -1.08491
H         -1.18170        2.47750       -0.96811
C          2.23340        2.22444       -0.93862
O          3.40357        0.16379       -0.27597
C          2.94211       -1.16965       -0.05278
Cl         0.77749        4.40166       -1.60874
H          3.12299        2.82100       -1.13607
C          3.64282       -1.79948        1.13072
H          3.11715       -1.75426       -0.98091
O         -2.55134        0.83762        1.21363
C         -2.00976        1.42604        2.14985
O         -0.72037        1.46745        2.33017
C         -2.80711        2.16648        3.16715
H         -3.87337        1.95552        3.03747
H         -2.47225        1.88728        4.17571
H         -2.61994        3.24436        3.04683
H         -0.27999        1.06492        1.54010
Pd        -1.70147       -0.47147       -0.13688
O         -3.10681       -2.15015       -0.37527
C         -2.27367       -2.61636       -1.18855
O         -1.19401       -1.96679       -1.40791
C         -2.51191       -3.89326       -1.92838
H         -2.79182       -3.65553       -2.96598
H         -1.58892       -4.48751       -1.96141
H         -3.32432       -4.45923       -1.45742
H          3.41212       -1.14688        1.99128
C          3.07963       -3.18995        1.39412
H          3.55632       -3.63660        2.27910
H          1.99441       -3.15613        1.56398
H          3.26961       -3.85998        0.53950
C          5.14902       -1.81508        0.90656
H          5.53736       -0.80229        0.72990
H          5.66423       -2.23531        1.78280
H          5.41144       -2.43848        0.03590
