33
Benzene_H10_Int2_Sub66.log	Energy: -561780.2754873
C          0.84740        0.71663       -0.47697
C          1.66452        0.53141       -1.60273
C          1.17726        1.70664        0.47356
C          2.80590        1.30866       -1.79674
H          1.40392       -0.23300       -2.34067
C          2.33813        2.46605        0.26356
C          0.32875        1.95256        1.69620
C          3.14585        2.27723       -0.85480
H          3.42701        1.15523       -2.68287
H          2.60247        3.23259        0.99830
H          4.03997        2.89009       -0.99175
O          0.30957       -2.14802       -0.25784
C          1.37792       -2.42143        0.28704
O          2.18725       -1.53483        0.79515
C          1.84887       -3.83045        0.41088
H          1.08736       -4.51804        0.02947
H          2.78614       -3.94840       -0.15279
H          2.07350       -4.04877        1.46471
H          1.85215       -0.62887        0.57842
Pd        -0.76814       -0.37770       -0.30543
O         -2.94748       -0.89665       -0.16889
C         -3.14362        0.33729       -0.21566
O         -2.14036        1.13060       -0.29664
C         -4.51810        0.92953       -0.19427
H         -4.72615        1.39072       -1.17127
H         -5.26470        0.15430        0.01365
H         -4.56832        1.72649        0.56075
H          0.61010        2.92666        2.12664
H         -0.72418        2.03026        1.38255
C          0.46015        0.87123        2.76502
H         -0.14119        1.11907        3.65295
H          0.10062       -0.10042        2.38903
H          1.50597        0.74555        3.08763
