42
Benzofuran_H9_deriv1_Int2_Sub12.log	Energy: -994354.3618727
C          0.22159       -0.08697       -0.07666
C         -0.58337        0.86920       -0.69162
C         -0.48605       -1.13232        0.50643
C         -1.99770        0.84018       -0.73642
O         -0.10236        1.97527       -1.31267
C         -1.89174       -1.18998        0.48151
H          0.04972       -1.95474        0.98352
C         -2.71879       -0.22860       -0.12946
C         -2.33950        2.04905       -1.46566
C         -1.17140        2.66264       -1.77037
Cl        -2.51344       -2.61169        1.29905
C         -4.25601       -0.33982       -0.12932
H         -3.31391        2.42966       -1.74128
H         -0.95185        3.58095       -2.30985
O          2.35211        1.90053        0.34531
C          1.71222        2.54063        1.17714
O          0.72279        2.04741        1.86938
C          2.01064        3.97358        1.45014
H          2.99615        4.23500        1.05119
H          1.24118        4.58272        0.95073
H          1.94976        4.17793        2.52702
H          0.51557        1.14281        1.53036
Pd         2.18479       -0.10394       -0.09102
O          4.23578       -0.90214       -0.26398
C          3.69084       -2.00865       -0.48444
O          2.41209       -2.08011       -0.47260
C          4.48088       -3.24003       -0.78885
H          4.01748       -4.11493       -0.31411
H          4.47116       -3.40565       -1.87711
H          5.51863       -3.11673       -0.45682
C         -4.95782        0.81605       -0.84779
H         -6.04341        0.64590       -0.79349
H         -4.75674        1.78613       -0.37232
H         -4.69009        0.86888       -1.91217
C         -4.68722       -1.61958       -0.86740
H         -4.28306       -2.53056       -0.41259
H         -5.78616       -1.69575       -0.86275
H         -4.35447       -1.58363       -1.91615
C         -4.78206       -0.31969        1.31674
H         -5.88044       -0.40325        1.31113
H         -4.38399       -1.13828        1.92634
H         -4.51790        0.63159        1.80418
