57
Benzoisoxazole_H9_deriv1_Int2_Sub3.log	Energy: -863234.5652105
C          0.27489        0.27588        0.00166
C          0.16848       -1.07919       -0.32915
C          1.53967        0.89567        0.17428
C          1.39355       -1.77138       -0.46574
C         -1.16351       -1.74938       -0.54594
C          2.75903        0.23329        0.05610
H          1.54721        1.96353        0.39757
C          2.62067       -1.12618       -0.27167
C          1.80283       -3.10850       -0.79324
C          4.11839        0.89592        0.24059
O          3.62133       -2.00988       -0.46118
H          1.19723       -3.98019       -1.03662
N          3.09639       -3.23339       -0.78625
O         -2.16431        0.48009        1.71342
C         -1.65054       -0.09698        2.67096
O         -0.37539       -0.34530        2.76974
C         -2.47832       -0.60076        3.80309
H         -3.41851       -0.04137        3.85798
H         -2.70797       -1.66128        3.61261
H         -1.92085       -0.54064        4.74605
H          0.06863       -0.08746        1.92070
Pd        -1.28062        1.47543        0.12446
O         -2.58675        3.21837       -0.37166
C         -1.73287        3.48280       -1.24730
O         -0.70503        2.72746       -1.36779
C         -1.88033        4.64303       -2.18048
H         -2.15943        4.26593       -3.17609
H         -2.65993        5.32469       -1.82060
H         -0.92083        5.16765       -2.28380
C          3.97627        2.37690        0.58911
H          4.97507        2.82131        0.71494
H          3.45979        2.93711       -0.20509
H          3.42552        2.52554        1.53068
C          4.87150        0.19035        1.37892
H          5.02466       -0.87583        1.16176
H          5.86007        0.65447        1.52244
H          4.31586        0.27353        2.32590
C          4.91644        0.77242       -1.06683
H          5.90400        1.24661       -0.95202
H          5.07402       -0.27850       -1.34602
H          4.39026        1.27413       -1.89332
H         -1.93274       -0.98855       -0.32797
C         -1.41973       -2.92860        0.40055
H         -1.26767       -2.61274        1.44560
H         -0.67529       -3.72285        0.22079
C         -2.81913       -3.49809        0.19942
H         -2.98225       -4.35658        0.87122
H         -3.56434       -2.73230        0.48247
C         -3.04604       -3.90717       -1.25243
H         -4.07234       -4.28441       -1.38871
H         -2.37201       -4.74809       -1.49840
C         -2.77339       -2.75052       -2.20847
H         -3.52205       -1.95565       -2.03954
H         -2.89995       -3.07740       -3.25312
C         -1.37943       -2.16715       -2.00605
H         -0.61866       -2.91307       -2.29648
H         -1.22341       -1.29387       -2.65888
