35
Benzofuran_H13_Int2_Sub23.log	Energy: -666801.3308456
C          0.21243        0.27310       -0.47992
C          1.29388       -0.42548        0.19697
C          0.83342        1.08095       -1.39332
C          2.46740        0.05651       -0.38793
C          1.37333       -1.38441        1.22229
H          0.44582        1.77447       -2.13675
O          2.19075        0.97155       -1.35470
C          3.76347       -0.34048       -0.01859
C          2.64107       -1.79191        1.60773
H          0.46903       -1.79499        1.67251
C          3.81372       -1.28521        1.01563
N          4.85657        0.17364       -0.66458
H          2.74710       -2.53679        2.40045
H          4.78244       -1.64294        1.36713
O         -2.18338        1.93244       -0.10059
C         -1.60258        2.80711        0.54518
O         -0.40851        2.66714        1.04054
C         -2.24333        4.12656        0.80953
H         -3.26249        4.13869        0.41042
H         -2.25195        4.31424        1.89289
H         -1.64050        4.92175        0.34684
H         -0.02610        1.81435        0.69373
Pd        -1.69914       -0.06578       -0.23180
O         -3.58681       -1.17958        0.00134
C         -2.88776       -2.21377       -0.11525
O         -1.62331       -2.09060       -0.26907
C         -3.48445       -3.58415       -0.10780
H         -2.83683       -4.27565        0.44733
H         -4.49180       -3.55720        0.32448
H         -3.54892       -3.94751       -1.14488
H          4.68128        0.97446       -1.25374
C          6.19626       -0.05511       -0.21654
H          6.89554        0.47308       -0.87829
H          6.45463       -1.12738       -0.25548
H          6.37586        0.29196        0.82036
