38
Benzothiophene_H13_deriv1_Int2_Sub31.log	Energy: -1018575.7279790
C          0.57163        0.69814       -0.79196
C          1.67656       -0.20521       -0.50479
C          0.98543        1.77983       -1.52486
C          2.90014        0.30219       -1.02445
C          1.72058       -1.46804        0.14452
H          0.35976        2.58135       -1.92013
S          2.68853        1.79577       -1.88018
C          4.12363       -0.35528       -0.86560
C          2.94010       -2.11253        0.29594
C          0.48094       -2.19118        0.63884
C          4.13439       -1.56109       -0.18895
H          5.04119        0.07274       -1.27472
H          2.95543       -3.08350        0.79031
H          5.07357       -2.10034       -0.04835
O         -0.82619        1.31320        1.69481
C         -0.02887        2.17379        2.08013
O          0.87845        2.71373        1.32651
C         -0.03562        2.64691        3.49321
H         -0.94259        2.30540        4.00250
H          0.85122        2.23952        4.00298
H          0.04465        3.74191        3.52180
H          0.87139        2.29141        0.42130
Pd        -1.28807        0.56998       -0.19724
O         -3.43565        0.13838       -0.16564
C         -3.28954       -0.24885       -1.35299
O         -2.13964       -0.14234       -1.89720
C         -4.40852       -0.86424       -2.12758
H         -4.30522       -0.63763       -3.19637
H         -4.35495       -1.95710       -2.00489
H         -5.37437       -0.51577       -1.74172
F          0.76796       -3.50544        0.86697
F         -0.43440       -2.25014       -0.39439
N         -0.05105       -1.64572        1.80622
H          0.01393       -0.63567        1.82057
C         -1.34216       -2.13979        2.24303
H         -1.53022       -1.79450        3.26919
H         -1.32072       -3.23779        2.25862
H         -2.18097       -1.81254        1.60329
