33
Benzo13dioxol_H9_Int2_Sub22.log	Energy: -655366.9892138
C         -0.44030       -0.09758        0.15248
C         -1.03882       -1.10790       -0.63159
C         -1.22815        0.74763        0.94520
C         -2.41538       -1.20134       -0.57303
H         -0.44486       -1.80103       -1.22889
C         -2.63391        0.64547        1.00343
H         -0.74732        1.51511        1.55886
C         -3.18452       -0.35342        0.21924
O         -3.24261       -2.05027       -1.24361
C         -3.48819        1.54389        1.84208
O         -4.50344       -0.65741        0.05449
C         -4.52377       -1.86860       -0.67561
H         -5.27976       -1.80912       -1.47358
H         -4.75133       -2.71152        0.00805
O          1.51248        2.07511        0.16573
C          0.92461        2.77691       -0.65730
O          0.03399        2.31860       -1.49172
C          1.18201        4.24056       -0.76087
H          2.02573        4.52134       -0.12250
H          1.38075        4.50697       -1.80838
H          0.27656        4.78426       -0.45192
H         -0.16385        1.37934       -1.24762
Pd         1.51631        0.00295        0.17767
O          3.63775       -0.69953        0.20404
C          3.15335       -1.85229        0.16170
O          1.88149       -1.99535        0.11158
C          4.01141       -3.07780        0.19666
H          5.04467       -2.82622       -0.07062
H          3.99654       -3.49073        1.21699
H          3.60722       -3.84397       -0.47815
H         -4.11237        0.96250        2.53863
H         -4.17688        2.13601        1.21815
H         -2.87286        2.23877        2.42970
