30
Benzofuran_H13_deriv1_Int2_Sub26.log	Energy: -1184083.0584521
C          0.06505       -0.42120        0.32232
C          1.40077        0.04002       -0.01438
C          0.29787       -1.57717        1.01533
C          2.29498       -0.91304        0.50329
C          1.91992        1.15096       -0.69123
Cl        -0.78061       -2.67655        1.74022
O          1.61157       -1.90280        1.13302
C          3.67460       -0.83444        0.37626
C          3.29651        1.26195       -0.83437
H          1.25030        1.92138       -1.07637
C          4.15320        0.27888       -0.30902
H          4.34249       -1.59117        0.78685
H          3.73478        2.11628       -1.35206
Cl         5.86454        0.46290       -0.51785
O         -2.69182       -1.06597       -0.50300
C         -2.34960       -1.98491       -1.24904
O         -1.14292       -2.12120       -1.71668
C         -3.30908       -3.04754       -1.65482
H         -4.33740       -2.71729       -1.47516
H         -3.15453       -3.32023       -2.70676
H         -3.10059       -3.93954       -1.04333
H         -0.55557       -1.46813       -1.25348
Pd        -1.59530        0.58480        0.03286
O         -2.97299        2.27783       -0.08127
C         -2.00511        2.98836        0.28075
O         -0.87187        2.42320        0.47523
C         -2.13629        4.45624        0.51825
H         -1.23642        4.97912        0.16846
H         -3.03376        4.84214        0.02033
H         -2.22512        4.63146        1.60141
