41
Benzoisoxazole_H8_deriv1_Int2_Sub21.log	Energy: -716086.1371286
C          0.00808       -0.30656       -0.01254
C         -0.93303        0.44394       -0.74382
C         -0.51046       -1.31933        0.78825
C         -2.29920        0.16268       -0.62923
C         -0.91554        1.53450       -1.67311
C         -1.89886       -1.59557        0.89594
H          0.18017       -1.95224        1.35225
C         -2.84339       -0.84434        0.18063
O         -2.99036        1.01569       -1.41324
H         -0.05892        2.07660       -2.07350
N         -2.11532        1.86022       -2.05464
C         -2.32969       -2.72002        1.79745
C         -4.33550       -1.07780        0.25129
O          1.62950        2.06359        0.10691
C          0.95608        2.60764        0.98372
O          0.21934        1.95572        1.83856
C          0.90610        4.08914        1.11576
H          0.89678        4.37888        2.17440
H          1.74964        4.54399        0.58617
H         -0.03699        4.43801        0.66570
H          0.19385        1.00290        1.57692
Pd         1.92981        0.02723       -0.09887
O          4.10920       -0.36785       -0.26101
C          3.78948       -1.57635       -0.33319
O          2.55121       -1.89693       -0.26245
C          4.80293       -2.65816       -0.52888
H          5.80228       -2.29557       -0.26030
H          4.53393       -3.54280        0.06330
H          4.80318       -2.95374       -1.58928
H         -2.99458       -2.36820        2.60222
H         -1.45978       -3.19770        2.26754
H         -2.87720       -3.49801        1.24240
H         -4.50374       -1.91093        0.94930
C         -5.06714        0.14290        0.81371
H         -6.14329       -0.06677        0.91607
H         -4.67791        0.41758        1.80597
H         -4.95333        1.01297        0.15035
C         -4.90048       -1.49919       -1.10699
H         -4.39172       -2.39782       -1.48736
H         -5.97506       -1.72470       -1.02347
H         -4.77879       -0.69918       -1.85209
