42
Benzothiophene_H13_deriv1_Int2_Sub5.log	Energy: -1095418.6013786
C          0.39373        0.60328       -0.14759
C          1.67290       -0.00928       -0.46903
C          0.43585        1.97221       -0.26878
C          2.63666        0.96434       -0.84577
C          2.10609       -1.35907       -0.44602
C         -0.70481        2.93902       -0.10698
S          1.99457        2.57190       -0.78389
C          3.94784        0.64053       -1.20171
C          3.40930       -1.67811       -0.80617
C          1.19602       -2.48081       -0.02323
C          4.32663       -0.69075       -1.18699
H          4.65347        1.42437       -1.48534
H          3.72109       -2.72229       -0.78536
H          5.34315       -0.97515       -1.46560
O         -1.23839       -0.35451        2.19018
C         -0.42813        0.09556        2.99957
O          0.58723        0.84106        2.67819
C         -0.54790       -0.20906        4.45401
H         -1.53699       -0.62499        4.67202
H          0.22398       -0.94978        4.71455
H         -0.35583        0.69344        5.04913
H          0.61517        0.94891        1.68535
Pd        -1.35464       -0.26844        0.13703
O         -3.32091       -1.11747       -0.38277
C         -3.01002       -0.88738       -1.57477
O         -1.88526       -0.32759       -1.82317
C         -3.89444       -1.26874       -2.71737
H         -3.90353       -0.47019       -3.47126
H         -3.48447       -2.17210       -3.19426
H         -4.90888       -1.48035       -2.35918
F          1.83228       -3.65519        0.01053
F          0.15271       -2.63218       -0.84426
F          0.70470       -2.27875        1.21172
H         -1.44362        2.41684        0.52645
C         -0.29122        4.22905        0.59413
H         -1.16446        4.88090        0.74654
H          0.16310        4.02585        1.57581
H          0.44043        4.79508       -0.00590
C         -1.36729        3.20045       -1.46197
H         -1.69415        2.25498       -1.91857
H         -2.24243        3.85826       -1.34296
H         -0.66173        3.68987       -2.15191
