46
Benzo13dioxol_H9_Int2_Sub19.log	Energy: -777866.2625352
C         -0.55272        0.53348       -0.08399
C         -0.65329        1.85624       -0.57139
C          0.69431       -0.00962        0.24282
C          0.52896        2.55341       -0.71184
H         -1.61721        2.31308       -0.79974
C          1.90214        0.70547        0.08901
H          0.74547       -1.02919        0.63463
C          1.76642        1.99385       -0.39337
O          0.72343        3.81412       -1.18838
C          3.24749        0.10984        0.40938
O          2.74929        2.89778       -0.67495
C          2.08039        4.11544       -0.93458
H          2.52451        4.60299       -1.81578
H          2.15528        4.77847       -0.04865
O         -1.34248       -2.24975       -0.44082
C         -0.74707       -2.41418       -1.50560
O         -0.39923       -1.43822       -2.29719
C         -0.34587       -3.77000       -1.97402
H         -0.85336       -4.53927       -1.38306
H         -0.57165       -3.88057       -3.04314
H          0.74435       -3.87012       -1.85594
H         -0.56361       -0.58433       -1.82455
Pd        -2.20988       -0.47337        0.18809
O         -4.34739       -0.86852        0.72158
C         -4.41106        0.35800        0.95836
O         -3.37290        1.08610        0.77582
C         -5.65646        1.00489        1.47814
H         -6.52417        0.35939        1.29716
H         -5.54737        1.16175        2.56225
H         -5.79613        1.98933        1.01213
H          4.00657        0.87584        0.17293
C          3.55169       -1.11904       -0.45728
H          3.47647       -0.84762       -1.52267
H          2.77557       -1.88525       -0.27613
C          4.92240       -1.70644       -0.14178
H          5.10327       -2.60274       -0.75740
H          5.70130       -0.97524       -0.42422
C          5.06043       -2.03884        1.34005
H          6.06938       -2.42660        1.55487
H          4.35490       -2.85038        1.59637
C          4.75993       -0.82329        2.21039
H          5.53278       -0.05283        2.03598
H          4.82360       -1.08852        3.27811
C          3.38924       -0.23445        1.89708
H          2.60406       -0.96043        2.17477
H          3.20316        0.66635        2.50322
