30
Benzofuran_H9_Int2_Sub18.log	Energy: -895760.1563637
C         -0.07789        1.05404        0.21807
C          1.27751        0.97195       -0.10515
C         -0.48182        2.30069        0.71494
C          2.20605        2.01882        0.05912
O          1.92236       -0.13499       -0.58672
C          0.41608        3.36888        0.88404
H         -1.53711        2.44920        0.95623
C          1.76228        3.24826        0.56242
C          3.47976        1.48523       -0.35465
C          3.22282        0.20235       -0.71503
H          0.03853        4.31656        1.27569
H          2.45392        4.08179        0.70003
H          4.44755        1.97860       -0.37334
Cl         4.24803       -1.03468       -1.26826
O         -0.13464       -1.90480        0.19217
C          0.68648       -2.02752        1.09889
O          0.83934       -1.15016        2.05397
C          1.61486       -3.18730        1.15038
H          1.16075       -4.05258        0.65503
H          2.51874       -2.89847        0.58922
H          1.90365       -3.41823        2.18257
H          0.29132       -0.35917        1.84126
Pd        -1.44052       -0.33969       -0.05955
O         -3.42461       -1.22479       -0.46248
C         -3.83918       -0.04554       -0.53849
O         -3.01149        0.91297       -0.34492
C         -5.25794        0.28067       -0.87637
H         -5.59654        1.14914       -0.29616
H         -5.31418        0.54787       -1.94282
H         -5.90102       -0.58847       -0.69352
