32
Benzoisoxazole_H10_Int2_Sub14.log	Energy: -642134.6555438
C          0.49369       -0.42965        0.16345
C          0.81391       -1.16563        1.33615
C          1.47575       -0.10566       -0.78470
C          2.10643       -1.58099        1.62007
H          0.00614       -1.42385        2.02532
C          2.76670       -0.54648       -0.46503
C          1.23180        0.65155       -2.05431
C          3.10431       -1.25741        0.69039
H          2.33059       -2.14577        2.52730
O          3.87046       -0.35493       -1.21082
C          4.51380       -1.45388        0.52964
N          4.94736       -0.92651       -0.57768
H          5.21943       -1.96350        1.18580
O         -0.99167        2.09068       -0.18300
C         -0.20522        2.76910        0.47598
O          0.68884        2.26815        1.28233
C         -0.20207        4.25662        0.39330
H         -0.21381        4.68422        1.40545
H          0.73194        4.58367       -0.08829
H         -1.06324        4.60379       -0.18638
H          0.68813        1.28407        1.19350
Pd        -1.39064        0.06213       -0.07154
O         -3.59411       -0.19656       -0.25076
C         -3.36433       -1.42037       -0.12147
O         -2.15601       -1.81413        0.03993
C         -4.45171       -2.44569       -0.17679
H         -5.42871       -1.97231       -0.02312
H         -4.43676       -2.92401       -1.16809
H         -4.27315       -3.22863        0.57219
H          0.15921        0.72100       -2.27582
H          1.73691        0.16047       -2.89943
H          1.64293        1.67351       -1.99521
