45
Benzoisoxazole_H9_Int2_Sub27.log	Energy: -764636.7182201
C         -0.80996       -0.85109       -0.19251
C          0.51703       -0.50986        0.06572
C         -1.12953       -2.15061       -0.66178
C          1.51422       -1.46716       -0.17849
H          0.77776        0.47844        0.45023
C         -0.15498       -3.11040       -0.90542
H         -2.18094       -2.40632       -0.81513
C          1.16451       -2.73297       -0.65644
C          2.95081       -1.54412       -0.08945
H         -0.40357       -4.10947       -1.26652
O          2.27224       -3.47234       -0.82420
C          3.92227       -0.49353        0.33890
N          3.36827       -2.71957       -0.47074
O         -1.12928        2.03698       -0.34589
C         -0.57202        2.18608       -1.43368
O         -0.50450        1.24980       -2.33948
C          0.10983        3.45868       -1.79578
H         -0.20775        4.26140       -1.12233
H          1.19663        3.30699       -1.69881
H         -0.09514        3.71489       -2.84349
H         -0.85031        0.41444       -1.94260
Pd        -2.28512        0.39127        0.15738
O         -4.31964        1.09645        0.73314
C         -4.59078       -0.11452        0.89145
O         -3.68702       -0.99109        0.65002
C         -5.92607       -0.57599        1.38140
H         -5.84580       -0.81485        2.45300
H         -6.67376        0.21483        1.24791
H         -6.22703       -1.49298        0.85773
H          4.92358       -0.95019        0.25702
C          3.70571       -0.07507        1.79878
H          3.78720       -0.95925        2.45025
H          2.67599        0.30488        1.92086
C          4.69648        1.00230        2.22351
H          4.49939        1.30657        3.26386
H          5.71754        0.58034        2.21171
C          4.64342        2.21006        1.29425
H          5.38722        2.96354        1.59934
H          3.65416        2.69523        1.38725
C          4.86679        1.80001       -0.15730
H          5.89506        1.41242       -0.27104
H          4.79269        2.67517       -0.82340
C          3.87925        0.72455       -0.59420
H          2.85640        1.14295       -0.59450
H          4.08221        0.40312       -1.62806
