30
Benzothiophene_H9_Int2_Sub18.log	Energy: -1098388.3233367
C         -0.03932       -0.72030        0.85932
C          1.27566       -0.41713        0.47288
C         -0.20571       -1.76614        1.77092
C          2.40085       -1.13306        0.96046
S          1.75063        0.83250       -0.64761
C          0.89618       -2.47668        2.27815
H         -1.21206       -2.03879        2.10026
C          2.18924       -2.17374        1.88048
C          3.63058       -0.65256        0.39836
C          3.42178        0.37488       -0.46954
H          0.72561       -3.28368        2.99491
H          3.04041       -2.73528        2.27215
H          4.61793       -1.05181        0.62912
Cl         4.61843        1.22630       -1.34656
O         -2.48674       -1.33368       -0.60827
C         -2.00812       -2.26991       -1.24805
O         -0.72983       -2.49136       -1.36903
C         -2.87762       -3.25680       -1.94811
H         -3.92476       -2.94289       -1.89293
H         -2.55511       -3.35298       -2.99443
H         -2.75161       -4.24277       -1.47626
H         -0.23789       -1.86698       -0.78271
Pd        -1.54216        0.32909        0.17247
O         -2.81273        2.09166       -0.27420
C         -1.92882        2.75919        0.31007
O         -0.90275        2.15336        0.78050
C         -2.03361        4.23873        0.49543
H         -2.85384        4.64150       -0.11013
H         -2.22206        4.45355        1.55809
H         -1.08105        4.71611        0.22749
