45
Benzoisoxazole_H10_Int2_Sub27.log	Energy: -764636.9004363
C         -0.83087        0.03566       -0.22212
C          0.01893       -0.87435        0.45550
C         -0.29596        1.07319       -0.98892
C          1.40063       -0.75940        0.39738
H         -0.43226       -1.69745        1.01413
C          1.09515        1.16239       -1.03821
H         -0.91966        1.78154       -1.53746
C          1.94959        0.28283       -0.36521
H          2.03604       -1.47173        0.92733
O          1.82174        2.07274       -1.70523
C          3.25801        0.77780       -0.71326
N          3.15903        1.81886       -1.49299
C          4.60289        0.26296       -0.31597
O         -3.15662        1.76970       -0.09728
C         -2.71377        2.55161        0.74452
O         -1.80675        2.22146        1.62266
C         -3.17074        3.96585        0.81802
H         -3.38540        4.23626        1.86081
H         -2.35272        4.61614        0.47159
H         -4.05250        4.11028        0.18563
H         -1.48218        1.31639        1.40344
Pd        -2.76134       -0.26232       -0.11156
O         -4.69265       -1.36416       -0.00466
C         -3.99341       -2.40197       -0.00812
O         -2.71704       -2.29172       -0.04229
C         -4.59702       -3.77001       -0.00361
H         -5.63548       -3.72592        0.34564
H         -4.58280       -4.16512       -1.03101
H         -4.00058       -4.44700        0.62211
H          5.33693        0.93186       -0.79748
C          4.84303       -1.15942       -0.83827
H          4.72089       -1.17507       -1.93277
H          4.06906       -1.83321       -0.42995
C          6.22221       -1.67239       -0.44099
H          6.35818       -2.70516       -0.80005
H          6.99345       -1.06401       -0.94694
C          6.43475       -1.59788        1.06711
H          7.44857       -1.94044        1.32986
H          5.73374       -2.29133        1.56682
C          6.19900       -0.18510        1.59012
H          6.96885        0.48934        1.17373
H          6.31911       -0.15297        2.68498
C          4.81950        0.33394        1.20096
H          4.04459       -0.26755        1.70853
H          4.68171        1.37134        1.54485
