33
Benzofuran_H9_Int2_Sub6.log	Energy: -632092.3328947
C         -0.59516       -0.68183        0.23047
C         -1.67367       -0.57644       -0.64995
C         -0.75159       -1.58998        1.29502
C         -2.87644       -1.29738       -0.53286
O         -1.73701        0.25389       -1.72376
C         -1.95565       -2.32103        1.42467
C          0.36037       -1.79748        2.28565
C         -3.01303       -2.19387        0.53493
C         -3.69503       -0.85711       -1.63313
C         -2.95225        0.06479       -2.29728
H         -2.04596       -3.01646        2.26346
H         -3.92756       -2.77546        0.66913
H         -4.69912       -1.18615       -1.89116
H         -3.14855        0.66043       -3.18567
O          0.15955        2.14503        0.07373
C         -0.77429        2.51198        0.78536
O         -1.48584        1.71317        1.52806
C         -1.18473        3.94388        0.84140
H         -0.43086        4.57142        0.35525
H         -2.14883        4.05144        0.32121
H         -1.33876        4.24934        1.88519
H         -1.22622        0.77357        1.33671
Pd         1.07117        0.30635       -0.09373
O          3.21681        0.67859       -0.52445
C          3.33642       -0.56740       -0.54084
O          2.30612       -1.29418       -0.31520
C          4.63831       -1.23971       -0.84059
H          4.78628       -2.09399       -0.16639
H          4.60738       -1.63020       -1.86921
H          5.46468       -0.52458       -0.75217
H          0.61794       -0.85900        2.80320
H          1.27332       -2.13425        1.77120
H          0.08571       -2.54093        3.04689
