39
Benzo13dioxol_H9_Int2_Sub5.log	Energy: -704665.0220032
C          0.47992       -0.06578       -0.51807
C          1.37164       -0.41098        0.53720
C          0.95327        0.10085       -1.82821
C          2.69446       -0.57845        0.15689
C          0.99205       -0.64209        1.98592
C          2.30786       -0.06341       -2.17313
H          0.24646        0.35797       -2.62158
C          3.15845       -0.41078       -1.14746
O          3.75516       -0.88020        0.96166
H          2.66525        0.07301       -3.19442
O          4.50489       -0.60055       -1.17419
C          4.84035       -1.13051        0.09266
H          5.74580       -0.63503        0.47491
H          5.00554       -2.22366        0.00774
O         -1.46641        2.13874        0.02482
C         -0.59608        3.00651        0.06016
O          0.66474        2.78749       -0.17757
C         -0.92704        4.41793        0.41067
H         -2.01230        4.56236        0.40676
H         -0.53136        4.63036        1.41584
H         -0.43407        5.10621       -0.28900
H          0.79482        1.82522       -0.39346
Pd        -1.46518        0.08754       -0.27130
O         -3.60413       -0.54869       -0.17857
C         -3.17076       -1.70565       -0.37790
O         -1.91071       -1.88733       -0.51917
C         -4.07398       -2.89723       -0.43839
H         -5.12362       -2.58112       -0.43817
H         -3.84935       -3.49021       -1.33588
H         -3.88060       -3.53850        0.43460
H          1.94441       -0.72412        2.53390
C          0.21962        0.52092        2.60331
H          0.08435        0.35713        3.68345
H          0.75594        1.47353        2.46986
H         -0.78276        0.62276        2.15660
C          0.25339       -1.97090        2.15202
H          0.87126       -2.80872        1.79615
H          0.01201       -2.14890        3.21193
H         -0.68072       -1.98360        1.57081
