33
Benzofuran_H9_deriv1_Int2_Sub17.log	Energy: -1107158.9940810
C         -0.36174        0.43394        0.08664
C          0.84538       -0.15982       -0.28936
C         -0.24699        1.72436        0.61404
C          2.10150        0.45573       -0.15234
O          0.99884       -1.40776       -0.81990
C          1.00428        2.35302        0.76073
H         -1.14508        2.27590        0.89895
C          2.19451        1.74413        0.38621
C          3.04611       -0.51206       -0.65045
C          2.31584       -1.59382       -1.03015
Cl         1.05090        3.95201        1.43145
H          3.15063        2.25272        0.50936
C          4.52248       -0.36673       -0.73533
H          2.60984       -2.54615       -1.46443
O         -1.55864       -2.23541        0.42123
C         -0.89598       -2.52208        1.41646
O         -0.35735       -1.63445        2.20734
C         -0.63063       -3.93684        1.79408
H         -1.30275       -4.60466        1.24563
H          0.41314       -4.17131        1.53337
H         -0.73829       -4.06740        2.87891
H         -0.48747       -0.73878        1.81621
Pd        -2.14133       -0.35451       -0.17658
O         -4.27842       -0.47731       -0.68236
C         -4.20077        0.74734       -0.93731
O         -3.07646        1.33882       -0.76834
C         -5.36118        1.53067       -1.45651
H         -5.36854        2.53572       -1.01455
H         -5.25039        1.64496       -2.54578
H         -6.29915        1.00260       -1.24760
F          5.09015       -1.46419       -1.24413
F          5.06344       -0.15023        0.46897
F          4.87233        0.66791       -1.50553
