32
Benzoisoxazole_H8_Int2_Sub25.log	Energy: -828878.5543316
C         -0.06196       -0.33655       -0.01666
C          0.86052        0.44139        0.71370
C          0.47441       -1.34766       -0.81467
C          2.23777        0.20934        0.61326
C          0.80875        1.52935        1.64780
C          1.86322       -1.56341       -0.90439
H         -0.19598       -2.00419       -1.37419
C          2.77912       -0.79121       -0.20119
O          2.90090        1.07273        1.39238
H         -0.06389        2.04381        2.04918
N          1.99722        1.88844        2.03254
H          2.24031       -2.36244       -1.54543
C          4.26133       -1.00653       -0.30028
O         -1.75678        1.99307       -0.01194
C         -1.14260        2.59704       -0.89361
O         -0.47193        1.99893       -1.83861
C         -1.08816        4.08240       -0.92741
H         -1.13720        4.44500       -1.96212
H         -1.89506        4.50336       -0.31863
H         -0.11749        4.39436       -0.50944
H         -0.45781        1.03197       -1.65197
Pd        -1.99186       -0.05914        0.07178
O         -4.14755       -0.52058        0.19806
C         -3.79927       -1.72391        0.20432
O         -2.55069       -2.00376        0.12129
C         -4.78289       -2.84015        0.33422
H         -5.78993       -2.49031        0.07797
H         -4.48611       -3.68438       -0.30192
H         -4.78135       -3.19128        1.37756
F          4.55327       -2.01460       -1.12617
F          4.79564       -1.29157        0.88867
F          4.88178        0.08304       -0.76149
