46
Benzothiophene_H9_Int2_Sub19.log	Energy: -957222.9626503
C          1.34270       -0.81450       -0.90323
C         -0.05366       -0.95285       -0.86427
C          2.05668       -1.77191       -1.62810
C         -0.73516       -2.01324       -1.51661
S         -1.16963        0.09025       -0.02818
C          1.39897       -2.82176       -2.29310
H          3.14660       -1.70556       -1.68379
C          0.01895       -2.95118       -2.24123
C         -2.15282       -1.93819       -1.30420
C         -2.53420       -0.88196       -0.53056
H          1.99011       -3.54836       -2.85612
H         -0.48352       -3.77431       -2.75480
H         -2.86532       -2.65418       -1.71830
C         -3.91812       -0.50208       -0.10821
O          3.25015       -0.55370        1.28569
C          2.88320       -1.57062        1.87334
O          1.76774       -2.19637        1.62714
C          3.71692       -2.19072        2.94231
H          4.57610       -1.55150        3.16895
H          3.10378       -2.35098        3.84028
H          4.05940       -3.17896        2.60065
H          1.33206       -1.79070        0.83772
Pd         2.20854        0.68668        0.00273
O          2.75189        2.78620        0.49950
C          1.96403        3.10526       -0.42011
O          1.34717        2.18490       -1.06092
C          1.72896        4.52959       -0.81227
H          2.16699        5.20675       -0.06971
H          2.19289        4.71171       -1.79336
H          0.65116        4.71394       -0.91914
H         -4.59372       -1.25035       -0.56158
C         -4.33060        0.87945       -0.63517
H         -4.22559        0.90154       -1.73138
H         -3.62480        1.63363       -0.24249
C         -5.75043        1.24106       -0.21592
H         -6.00610        2.24827       -0.58248
H         -6.46004        0.54620       -0.70103
C         -5.92588        1.16232        1.29666
H         -6.96716        1.39071        1.57582
H         -5.29854        1.93669        1.77429
C         -5.52007       -0.20734        1.82984
H         -6.21855       -0.97056        1.44087
H         -5.61105       -0.23701        2.92766
C         -4.09982       -0.57176        1.41459
H         -3.38487        0.12513        1.88830
H         -3.83183       -1.57902        1.77130
