33
Benzofuran_H9_Int2_Sub22.log	Energy: -632096.9720596
C          0.24060       -0.93579       -0.31860
C          1.52536       -0.78770        0.20872
C          0.04556       -2.08894       -1.09079
C          2.58105       -1.69482       -0.00668
O          1.96307        0.25021        0.97193
C          1.07926       -3.01350       -1.32385
H         -0.94708       -2.28399       -1.50428
C          2.34969       -2.83330       -0.79014
C          3.70797       -1.13942        0.69672
C          3.27631        0.02182        1.25980
H          0.87025       -3.89524       -1.93459
H          3.14590       -3.55729       -0.97629
H          4.71145       -1.55201        0.77442
C          3.94282        1.03971        2.10162
O         -0.13428        1.97781       -0.19392
C          0.69326        2.20879       -1.07271
O          1.06551        1.33803       -1.96924
C          1.37183        3.53113       -1.16910
H          0.82020        4.28001       -0.59137
H          2.38527        3.42329       -0.75178
H          1.47446        3.83378       -2.21924
H          0.67538        0.45822       -1.74080
Pd        -1.26290        0.27218        0.04589
O         -3.33191        0.91244        0.52415
C         -3.60399       -0.30957        0.55561
O         -2.67851       -1.15884        0.30765
C         -4.96920       -0.81189        0.90268
H         -5.22035       -1.68555        0.28684
H         -4.97006       -1.13361        1.95545
H         -5.71110       -0.01476        0.77380
H          3.44011        1.13300        3.07735
H          3.91379        2.03226        1.62348
H          4.99141        0.76547        2.27170
