33
Benzothiophene_H13_deriv1_Int2_Sub18.log	Energy: -1309777.1723206
C         -0.13624        0.86785       -0.80388
C          1.27279        0.52626       -0.63775
C         -0.29263        1.83056       -1.76763
C          2.08350        1.24802       -1.55269
C          1.91571       -0.37337        0.26348
H         -1.23598        2.25272       -2.11613
S          1.17165        2.34568       -2.53163
C          3.46414        1.06391       -1.63958
C          3.29005       -0.58503        0.12283
C          1.08549       -1.03689        1.34231
C          4.05491        0.13007       -0.81704
H          4.06210        1.63261       -2.35448
Cl         4.19239       -1.74297        1.04650
H          5.12535       -0.06967       -0.87220
O         -2.24668        1.19386        1.35047
C         -1.69250        2.18511        1.82333
O         -0.63718        2.74377        1.30815
C         -2.19555        2.82671        3.07110
H         -3.19198        2.44462        3.31564
H         -1.49946        2.58264        3.88853
H         -2.20509        3.91912        2.95995
H         -0.36524        2.23315        0.49935
Pd        -1.75647       -0.08177       -0.19201
O         -3.34213       -1.58620       -0.18842
C         -2.72952       -2.11806       -1.14629
O         -1.66738       -1.55579       -1.58294
C         -3.18304       -3.39872       -1.76699
H         -3.02701       -3.37011       -2.85343
H         -2.57321       -4.22081       -1.36186
H         -4.23658       -3.58494       -1.52639
F          1.79552       -1.57622        2.32318
F          0.30217       -1.99892        0.84823
F          0.28583       -0.12733        1.93121
