46
Benzo13dioxol_H8_deriv1_Int2_Sub19.log	Energy: -1066193.2772140
C         -1.10101        0.61315       -0.38779
C          0.26802        0.77318       -0.52513
C         -1.88220        1.77509       -0.59284
C          0.85320        2.00366       -0.83737
O          1.25289       -0.14500       -0.34175
C         -1.28806        2.99446       -0.90515
H         -2.96990        1.72712       -0.51344
C          0.10372        3.14465       -1.03481
O          2.19863        1.86519       -0.86782
C          2.46050        0.46340       -0.77437
Cl        -2.29322        4.39007       -1.14852
H          0.55753        4.10569       -1.27291
C          3.58730        0.18393        0.18915
H          2.69731        0.08938       -1.79253
O         -2.95424       -0.49616        1.58224
C         -2.56841        0.22490        2.50271
O         -1.43760        0.87129        2.49099
C         -3.39263        0.42988        3.72649
H         -4.24144       -0.26131        3.72993
H         -2.76979        0.29019        4.62081
H         -3.75448        1.46924        3.73870
H         -1.03175        0.77741        1.59277
Pd        -1.88992       -1.15250       -0.05960
O         -2.37521       -3.28379       -0.32991
C         -1.60543       -3.24230       -1.31916
O         -1.01881       -2.14118       -1.60021
C         -1.36996       -4.43063       -2.19501
H         -1.93046       -4.29725       -3.13284
H         -0.30482       -4.50375       -2.45246
H         -1.71500       -5.34422       -1.69656
H          3.26157        0.59350        1.16338
C          4.86862        0.89833       -0.23856
H          4.68508        1.98118       -0.30805
H          5.14340        0.55886       -1.25471
C          6.01624        0.60194        0.72000
H          6.93594        1.09891        0.37217
H          5.78290        1.03899        1.70770
C          6.24491       -0.89758        0.87626
H          7.05084       -1.08996        1.60271
H          6.59018       -1.31365       -0.08776
C          4.96549       -1.61160        1.29904
H          4.68263       -1.27959        2.31434
H          5.13358       -2.69840        1.36558
C          3.81575       -1.31952        0.34177
H          4.04802       -1.74679       -0.65151
H          2.88796       -1.80408        0.68147
