29
Benzothiazole_H11_Int2_Sub10.log	Energy: -1108456.3468974
C          0.53623       -0.11239       -0.27087
C          0.89248       -1.32717        0.33491
C          1.55171        0.59486       -0.91695
C          2.22284       -1.81990        0.31253
S         -0.10950       -2.44495        1.21209
C          2.86834        0.10103       -0.95108
H          1.33926        1.54579       -1.41017
C          3.22450       -1.09274       -0.34469
N          2.41405       -3.01297        0.96959
C          1.30377       -3.42968        1.47622
Cl         4.07997        1.03323       -1.77246
H          4.24812       -1.46572       -0.36713
H          1.21192       -4.36187        2.04093
O         -0.74946        2.41386        0.35932
C         -0.01276        2.70232        1.30282
O          0.68885        1.82611        1.96632
C          0.15094        4.10874        1.76230
H         -0.59272        4.75184        1.28108
H          0.06248        4.15563        2.85633
H          1.16492        4.44804        1.50063
H          0.62196        0.95632        1.50784
Pd        -1.31560        0.52444       -0.25265
O         -3.51301        0.52010       -0.46999
C         -3.38844       -0.67834       -0.81306
O         -2.21619       -1.19534       -0.83501
C         -4.55363       -1.51899       -1.22206
H         -4.55471       -1.61321       -2.31872
H         -4.45503       -2.52913       -0.80259
H         -5.49164       -1.05119       -0.90063
