32
Benzoisoxazole_H9_Int2_Sub25.log	Energy: -828874.2492778
C         -0.35347       -0.67982       -0.15929
C          0.86638       -0.13958        0.23897
C         -0.39579       -1.94105       -0.80861
C          2.03090       -0.86375       -0.05448
H          0.93015        0.81288        0.76772
C          0.75076       -2.66876       -1.10215
H         -1.37166       -2.35838       -1.06950
C          1.95909       -2.09244       -0.71413
C          3.44266       -0.69708        0.10954
H          0.71233       -3.63662       -1.60370
O          3.20489       -2.57620       -0.89748
C          4.13934        0.45429        0.76838
N          4.11017       -1.69918       -0.38455
O         -1.12353        2.07490        0.12764
C         -0.56117        2.49932       -0.88301
O         -0.47625        1.81253       -1.98974
C          0.11674        3.82172       -0.90668
H         -0.26918        4.45838       -0.10362
H          1.19190        3.64406       -0.73988
H          0.00326        4.29954       -1.88781
H         -0.83528        0.91243       -1.81277
Pd        -2.05427        0.22711        0.19175
O         -4.22376        0.49582        0.59494
C         -4.29821       -0.75075        0.52130
O         -3.23446       -1.41982        0.26260
C         -5.57550       -1.49091        0.75285
H         -5.56683       -1.89776        1.77572
H         -6.43124       -0.81369        0.64676
H         -5.65600       -2.33745        0.05825
F          5.44364        0.45092        0.55433
F          3.92874        0.44475        2.08571
F          3.64004        1.61089        0.30223
