32
Benzooxazole_H10_Int2_Sub14.log	Energy: -642159.4542599
C         -0.58043       -0.05156       -0.37020
C         -1.19277        0.51875       -1.51167
C         -1.33202       -0.75682        0.59135
C         -2.55850        0.41809       -1.75773
H         -0.56618        1.05683       -2.22833
C         -2.69581       -0.82746        0.31073
C         -0.73906       -1.39913        1.80954
C         -3.32055       -0.27321       -0.81413
H         -3.02073        0.85632       -2.64368
O         -3.66805       -1.43208        1.05022
N         -4.67897       -0.54944       -0.74472
C         -4.80548       -1.21642        0.34688
H         -5.71821       -1.63012        0.77490
O          1.34758        2.13511       -0.15313
C          0.57339        2.89274        0.43150
O         -0.54339        2.50795        0.98135
C          0.85558        4.35116        0.55028
H          0.10827        4.90744       -0.03540
H          0.74646        4.66390        1.59816
H          1.86232        4.57229        0.18179
H         -0.70485        1.55875        0.74385
Pd         1.36974        0.06799       -0.19292
O          3.49668       -0.58922       -0.05204
C          3.04301       -1.75417       -0.09780
O          1.77574       -1.92839       -0.17594
C          3.93090       -2.95810       -0.08617
H          3.94127       -3.40293       -1.09275
H          4.95189       -2.67593        0.19631
H          3.53080       -3.71391        0.60337
H          0.05212       -2.10424        1.51500
H         -1.50449       -1.93219        2.38863
H         -0.27193       -0.64805        2.46631
