36
Benzothiophene_H13_deriv1_Int2_Sub14.log	Energy: -1046117.7592418
C          0.33224       -0.07836       -0.88337
C          1.46937       -0.29441        0.00013
C          0.72477       -0.09842       -2.19621
C          2.67113       -0.48532       -0.73090
C          1.56738       -0.32604        1.41448
H          0.08300        0.01129       -3.07104
S          2.41666       -0.38797       -2.44385
C          3.92406       -0.71796       -0.13820
C          2.79859       -0.55723        2.00958
C          0.37736       -0.10037        2.30627
C          3.95769       -0.75451        1.24853
C          5.14419       -0.91442       -0.98140
H          2.86338       -0.58272        3.09734
H          4.90782       -0.93568        1.75666
O         -1.68803        2.04444       -0.21549
C         -0.86620        2.94973       -0.34512
O          0.32929        2.78648       -0.83211
C         -1.18399        4.34228        0.08087
H         -2.26444        4.45609        0.21750
H         -0.67685        4.52873        1.04045
H         -0.79531        5.06508       -0.64817
H          0.46497        1.82572       -1.04746
Pd        -1.58963        0.00178       -0.46398
O         -3.64081       -0.70539       -0.14560
C         -3.18391       -1.85796       -0.33788
O         -1.94316       -1.98995       -0.61772
C         -4.03508       -3.08032       -0.21830
H         -3.75165       -3.81694       -0.98155
H         -3.86001       -3.53522        0.76875
H         -5.09544       -2.81411       -0.30401
F          0.71376       -0.11323        3.59949
F         -0.56905       -1.02881        2.14496
F         -0.19456        1.09482        2.07457
H          5.32660       -0.03512       -1.62096
H          5.02231       -1.77955       -1.65371
H          6.03655       -1.08178       -0.36373
