37
Benzothiophene_H13_deriv1_Int2_Sub24.log	Energy: -1093272.5758720
C         -0.13841        0.89922       -0.80961
C          1.27464        0.62529       -0.57738
C         -0.29864        1.84925       -1.78537
C          2.09379        1.38324       -1.45461
C          1.91730       -0.23882        0.35417
H         -1.24439        2.22276       -2.17983
S          1.17389        2.43276       -2.48218
C          3.48583        1.27209       -1.46743
C          3.30848       -0.39300        0.28867
C          1.10362       -0.92581        1.42402
C          4.07745        0.36633       -0.61293
H          4.08801        1.87529       -2.15011
O          3.99898       -1.23775        1.09515
H          5.15839        0.21887       -0.59509
O         -2.33291        1.14776        1.25702
C         -1.84324        2.16922        1.73715
O         -0.79905        2.77388        1.25329
C         -2.42046        2.79752        2.95962
H         -3.40469        2.36881        3.17455
H         -1.74175        2.59667        3.80299
H         -2.48012        3.88694        2.83538
H         -0.47388        2.27120        0.45843
Pd        -1.72177       -0.12956       -0.24013
O         -3.21964       -1.72954       -0.26027
C         -2.54034       -2.24116       -1.18282
O         -1.49604       -1.62744       -1.59199
C         -2.89556       -3.55756       -1.79451
H         -2.70136       -3.53880       -2.87503
H         -2.25509       -4.33571       -1.35168
H         -3.94484       -3.80086       -1.58876
F          1.83229       -1.40102        2.42965
F          0.39431       -1.95745        0.94287
F          0.22995       -0.06733        1.97933
C          3.93000       -2.60435        0.75561
H          2.89362       -2.98030        0.75411
H          4.37520       -2.78897       -0.23816
H          4.50346       -3.15210        1.51439
