32
Benzooxazole_H10_Int2_Sub30.log	Energy: -642165.1569719
C          0.34145        0.12139        0.35059
C          0.88138        1.07762        1.24173
C          1.18425       -0.72340       -0.38675
C          2.25461        1.22872        1.42221
H          0.20052        1.71184        1.81561
C          2.54620       -0.54376       -0.19603
H          0.78873       -1.49720       -1.04709
C          3.09841        0.40100        0.67995
H          2.66426        1.96205        2.11935
O          3.58329       -1.20747       -0.77261
N          4.47962        0.29867        0.62265
C          4.70156       -0.64439       -0.22971
C          6.00226       -1.18245       -0.68141
O         -1.95824        1.90397        0.24487
C         -1.44983        2.72643       -0.51731
O         -0.46434        2.44705       -1.32449
C         -1.91979        4.13832       -0.57098
H         -1.12631        4.79092       -0.17636
H         -2.09409        4.43135       -1.61558
H         -2.83151        4.25516        0.02341
H         -0.14373        1.53495       -1.11816
Pd        -1.59259       -0.13431        0.17971
O         -3.53948       -1.20442       -0.03243
C         -2.85106       -2.24856       -0.06734
O         -1.57491       -2.15751        0.00377
C         -3.46931       -3.60756       -0.15994
H         -3.47994       -4.05964        0.84373
H         -4.49987       -3.53202       -0.52680
H         -2.86753       -4.25568       -0.81068
H          6.11286       -1.06881       -1.77055
H          6.07843       -2.25609       -0.45131
H          6.80858       -0.64212       -0.17334
