32
Benzoisoxazole_H8_Int2_Sub22.log	Energy: -642136.1720522
C         -0.52500       -0.56803       -0.04349
C         -1.62952       -0.03746       -0.74399
C         -0.75229       -1.72466        0.69636
C         -2.87807       -0.66439       -0.66284
C         -1.90109        1.07039       -1.61104
C         -2.02417       -2.35333        0.77026
H          0.08399       -2.18697        1.22888
C         -3.11108       -1.81763        0.08613
O         -3.77127        0.01660       -1.39870
H         -1.21850        1.83827       -1.97475
N         -3.14774        1.09371       -1.98364
C         -2.17219       -3.60344        1.58736
H         -4.10065       -2.27528        0.12569
O          0.43399        2.13394        0.18691
C         -0.34630        2.45068        1.08635
O         -0.86735        1.59794        1.92346
C         -0.79027        3.85895        1.26869
H         -0.87152        4.10046        2.33624
H         -0.10278        4.54060        0.75716
H         -1.79456        3.95653        0.82619
H         -0.63801        0.68336        1.63086
Pd         1.24606        0.25219       -0.09389
O          3.45222        0.43613       -0.24856
C          3.45435       -0.81003       -0.37115
O          2.33965       -1.44015       -0.32481
C          4.71142       -1.58621       -0.59957
H          5.58395       -0.99151       -0.30406
H          4.67798       -2.53525       -0.04844
H          4.78854       -1.82495       -1.67144
H         -3.20862       -3.96742        1.58925
H         -1.86735       -3.43293        2.63183
H         -1.52955       -4.40628        1.19228
