33
Benzo13dioxol_H8_deriv1_Int2_Sub25.log	Energy: -1130432.8446842
C         -0.42852        0.60805       -0.18998
C          0.82224        0.71186        0.39189
C         -0.88446        1.76681       -0.86010
C          1.59426        1.86914        0.32337
O          1.49505       -0.21837        1.13948
C         -0.10768        2.92165       -0.91762
H         -1.85742        1.76680       -1.35529
C          1.16371        3.00634       -0.32420
O          2.76057        1.67200        1.00196
C          2.77997        0.30274        1.33824
Cl        -0.71852        4.31241       -1.75618
H          1.76516        3.91263       -0.37752
H          3.09127        0.17309        2.38777
C          3.78265       -0.43110        0.43737
O         -3.16061       -0.26192        0.41357
C         -3.32142        0.52379        1.34799
O         -2.33971        1.10540        1.97764
C         -4.68069        0.88918        1.83345
H         -5.43429        0.25259        1.35913
H         -4.72097        0.79503        2.92747
H         -4.87187        1.94504        1.58865
H         -1.49882        0.89845        1.50109
Pd        -1.38799       -1.10387       -0.22474
O         -1.76408       -3.24300       -0.54138
C         -0.56035       -3.31431       -0.88859
O          0.14824       -2.24920       -0.86705
C          0.06607       -4.59018       -1.34684
H          0.16763       -4.56206       -2.44245
H          1.07447       -4.68635       -0.92254
H         -0.56095       -5.44426       -1.06494
F          3.46941       -0.29044       -0.84401
F          3.79672       -1.72526        0.73683
F          5.00474        0.05935        0.63255
