33
Benzothiophene_H9_Int2_Sub9.log	Energy: -1021467.1952142
C         -0.19529        0.23320       -0.13229
C         -0.33386        1.51612        0.42813
C         -1.34992       -0.37189       -0.62010
C         -1.58740        2.17653        0.51469
S          0.93341        2.48627        1.11922
C         -2.60052        0.27498       -0.55109
H         -1.29460       -1.36927       -1.06413
C         -2.72980        1.53420        0.00937
C         -1.47188        3.45729        1.15130
C         -0.19321        3.73476        1.52588
C         -3.79869       -0.45354       -1.08757
H         -3.70633        2.01737        0.06416
H         -2.31324        4.13142        1.31645
H          0.16665        4.63623        2.02169
O          0.80493       -2.37328        0.60682
C          0.14123       -2.47339        1.63899
O         -0.33145       -1.45192        2.29746
C         -0.19953       -3.80073        2.22001
H          0.40658       -4.58376        1.75322
H         -0.05435       -3.78355        3.30845
H         -1.26668       -3.99695        2.03243
H         -0.18083       -0.63643        1.76624
Pd         1.55057       -0.64571       -0.24391
O          3.68959       -0.97390       -0.69257
C          3.68101        0.19385       -1.14610
O          2.59220        0.86731       -1.09905
C          4.88842        0.82185       -1.76273
H          5.78794        0.25055       -1.50492
H          4.76524        0.82842       -2.85645
H          4.97905        1.86561       -1.43330
F         -4.92749        0.24406       -0.94058
F         -3.97241       -1.62806       -0.46192
F         -3.66631       -0.73183       -2.38903
