39
Benzene_H10_Int2_Sub178.log	Energy: -611078.5302205
C          0.16682       -0.12527       -0.13960
C          0.79158       -0.99650        0.76451
C          0.97515        0.60648       -1.01698
C          2.17915       -1.10774        0.79513
H          0.18397       -1.60846        1.43617
C          2.36553        0.47662       -0.98572
H          0.52225        1.28672       -1.74416
C          2.99989       -0.37648       -0.07683
H          2.62977       -1.79494        1.51629
H          2.95537        1.06055       -1.69378
C          4.51966       -0.53918       -0.00943
O         -1.77643        2.01923       -0.43768
C         -1.20157        2.81606        0.30344
O         -0.34047        2.46148        1.21661
C         -1.43898        4.28351        0.20769
H         -2.26930        4.48729       -0.47590
H         -1.64702        4.69083        1.20685
H         -0.52146        4.76848       -0.15846
H         -0.15199        1.49660        1.10877
Pd        -1.78596       -0.03924       -0.19394
O         -3.90690       -0.75040       -0.15857
C         -3.41841       -1.88641        0.03468
O         -2.14742       -2.01781        0.10848
C         -4.28506       -3.09610        0.19889
H         -4.83198       -3.01594        1.15029
H         -5.03141       -3.12280       -0.60696
H         -3.68465       -4.01344        0.19775
C          5.23900        0.33992       -1.03306
H          6.32675        0.19396       -0.94938
H          4.94904        0.08731       -2.06438
H          5.03419        1.40911       -0.86962
C          5.00835       -0.14748        1.39270
H          4.55400       -0.77511        2.17349
H          6.10182       -0.26169        1.46524
H          4.75760        0.90079        1.61699
C          4.88331       -2.00463       -0.28996
H          5.97504       -2.14602       -0.24338
H          4.42571       -2.68609        0.44223
H          4.53970       -2.30903       -1.29038
