34
Benzo13dioxol_H8_deriv1_Int2_Sub32.log	Energy: -990863.0521113
C         -0.23663       -0.44795       -0.25733
C         -1.25477        0.27492        0.34163
C         -0.64641       -1.58633       -0.98923
C         -2.59816       -0.08951        0.24448
O         -1.16448        1.37805        1.14225
C         -1.99131       -1.93695       -1.08725
H          0.09349       -2.20777       -1.49726
C         -3.01139       -1.19489       -0.46953
O         -3.34424        0.77896        0.97167
C         -2.46415        1.84643        1.32253
Cl        -2.43463       -3.34488       -2.00207
H         -4.05898       -1.48241       -0.54699
H         -2.64464        2.09558        2.38491
O         -2.64522        2.92462        0.50909
O          2.29891       -1.62906        0.62345
C          1.79181       -2.31424        1.51135
O          0.59162       -2.12092        1.97995
C          2.52540       -3.45544        2.12682
H          3.56451       -3.46521        1.78282
H          2.47690       -3.37856        3.22194
H          2.02525       -4.39357        1.84243
H          0.14641       -1.42902        1.43064
Pd         1.63176        0.14707       -0.19062
O          3.40457        1.41969       -0.45088
C          2.61431        2.27138       -0.92494
O          1.36912        1.98838       -0.98847
C          3.08164        3.59495       -1.43767
H          3.05194        3.58099       -2.53776
H          2.40275        4.38882       -1.09822
H          4.10817        3.79022       -1.10576
C         -3.86828        3.59239        0.69141
H         -4.72401        2.95227        0.41993
H         -3.99299        3.92652        1.73853
H         -3.85570        4.47355        0.03839
