35
Benzofuran_H13_deriv1_Int2_Sub7.log	Energy: -955125.2968512
C         -0.51896       -0.45921       -0.44004
C         -1.77875        0.20719       -0.14164
C         -0.90751       -1.60539       -1.07782
C         -2.79445       -0.64046       -0.60849
C         -2.13243        1.42433        0.49874
Cl         0.01214       -2.89298       -1.71012
O         -2.24876       -1.74264       -1.19108
C         -4.15716       -0.40163       -0.46061
C         -3.50488        1.67062        0.66441
N         -1.15544        2.28286        0.93283
C         -4.48154        0.77687        0.20008
H         -4.90565       -1.09928       -0.83549
H         -3.82865        2.58975        1.15299
H         -5.53347        1.02883        0.35516
O          1.86663       -1.63454        0.75567
C          1.23283       -2.32850        1.55338
O         -0.00508       -2.10683        1.88266
C          1.85248       -3.52283        2.19041
H          2.94415       -3.45681        2.13587
H          1.50814       -3.62616        3.22725
H          1.51625       -4.41168        1.63348
H         -0.36828       -1.40421        1.28216
Pd         1.32142        0.13800       -0.11720
O          3.12276        1.41690       -0.08886
C          2.41615        2.29298       -0.62951
O          1.17837        2.02840       -0.86394
C          2.95270        3.62638       -1.03395
H          2.26418        4.42120       -0.71545
H          3.94988        3.78148       -0.60610
H          3.01455        3.66653       -2.13197
H         -0.29892        2.25062        0.38492
C         -1.47933        3.56783        1.47939
H         -0.54842        4.09290        1.73390
H         -2.06496        3.46878        2.40814
H         -2.05866        4.21116        0.78685
