35
Benzo13dioxol_H9_Int2_Sub31.log	Energy: -690080.5898463
C          0.01461        0.23183       -0.26051
C          0.89741       -0.50180        0.56408
C          0.51427        1.19532       -1.14666
C          2.24216       -0.20913        0.46402
H          0.53765       -1.28818        1.22962
C          1.89064        1.46855       -1.24326
H         -0.17496        1.74782       -1.79055
C          2.73434        0.75409       -0.41628
O          3.28051       -0.76977        1.13793
H          2.28079        2.21268       -1.93949
O          4.07960        0.82241       -0.29815
C          4.47959       -0.20586        0.64664
H          5.02853        0.30863        1.45574
N          5.28738       -1.20567        0.09618
O         -2.48079        1.74785       -0.35350
C         -2.10558        2.65364        0.39123
O         -1.10880        2.53700        1.22315
C         -2.76845        3.98766        0.39382
H         -3.66615        3.96415       -0.23211
H         -3.02013        4.27233        1.42503
H         -2.06020        4.73812        0.01163
H         -0.65576        1.67489        1.04252
Pd        -1.88838       -0.23176       -0.20174
O         -3.71668       -1.51122       -0.07420
C         -2.91922       -2.46868        0.03708
O         -1.65939       -2.23687        0.03900
C         -3.38705       -3.88637        0.13990
H         -4.44328       -3.91787        0.43270
H         -3.27411       -4.36819       -0.84341
H         -2.76514       -4.44066        0.85529
H          4.78110       -1.73542       -0.60943
C          6.60657       -0.80017       -0.32818
H          7.18524       -1.68448       -0.63038
H          7.13770       -0.33727        0.51872
H          6.61112       -0.07538       -1.16414
