34
Benzoisoxazole_H10_Int2_Sub23.log	Energy: -676845.4431455
C          0.28861       -0.04920       -0.22713
C          0.89486       -1.08254        0.50578
C          1.04573        0.86514       -0.96872
C          2.28976       -1.27002        0.54323
H          0.25837       -1.79820        1.03394
C          2.42327        0.67182       -0.92517
H          0.60500        1.67085       -1.55612
C          3.06767       -0.34567       -0.20097
N          2.82074       -2.29396        1.26825
O          3.34572        1.42078       -1.55231
C          4.44930       -0.09111       -0.48819
N          4.60086        0.93489       -1.27188
H          5.34215       -0.61574       -0.15418
O         -1.62146        2.11072       -0.03720
C         -1.02206        2.73502        0.83830
O         -0.19131        2.18335        1.67928
C         -1.18655        4.20591        0.99928
H         -1.29776        4.45819        2.06237
H         -0.27119        4.69929        0.63734
H         -2.04709        4.55485        0.41946
H         -0.03630        1.24957        1.40031
Pd        -1.66341        0.04747       -0.19926
O         -3.78920       -0.63453       -0.22652
C         -3.31710       -1.79155       -0.28532
O         -2.04585       -1.94982       -0.27351
C         -4.19026       -3.00117       -0.40098
H         -5.20892       -2.76763       -0.06892
H         -4.22309       -3.31239       -1.45643
H         -3.76913       -3.83277        0.17919
H          2.15627       -2.92752        1.68721
C          4.20720       -2.64909        1.31879
H          4.32455       -3.54078        1.94815
H          4.82412       -1.85000        1.76519
H          4.62271       -2.88688        0.32261
