49
Benzothiophene_H13_deriv1_Int2_Sub3.log	Energy: -1168619.2453686
C         -0.15720       -0.58725       -0.13576
C         -1.32471       -1.36340       -0.51957
C          0.99930       -1.32694       -0.21638
C         -0.96964       -2.68627       -0.89783
C         -2.70417       -1.03852       -0.55437
C          2.39857       -0.84667        0.01814
S          0.73518       -2.96458       -0.76507
C         -1.90619       -3.63802       -1.30742
C         -3.63221       -1.98597       -0.96760
C         -3.21303        0.31516       -0.13781
C         -3.24181       -3.27638       -1.34712
H         -1.58580       -4.64319       -1.58991
H         -4.68762       -1.71477       -0.99063
H         -3.99605       -3.99733       -1.66837
O         -0.24008        1.26172        2.23260
C         -0.30285        0.32137        3.02380
O         -0.16667       -0.92673        2.68675
C         -0.56744        0.55499        4.47228
H         -0.43068        1.61392        4.71472
H         -1.60853        0.26476        4.68260
H          0.08446       -0.08098        5.08560
H         -0.04552       -0.98950        1.69691
Pd        -0.00689        1.35423        0.18963
O          0.32691        3.48325       -0.27605
C          0.42122        3.11894       -1.47138
O          0.31723        1.87289       -1.74806
C          0.62693        4.09077       -2.58790
H          1.37888        3.70453       -3.28928
H         -0.31812        4.19897       -3.14151
H          0.92820        5.06771       -2.19189
F         -4.54731        0.37902       -0.16856
F         -2.76257        1.29673       -0.92464
F         -2.84661        0.61420        1.12058
H          2.30477        0.05066        0.65816
C          3.04776       -0.39031       -1.29775
H          2.40109        0.36347       -1.77273
H          3.09112       -1.25373       -1.98573
C          4.44949        0.15727       -1.06032
H          4.90902        0.44345       -2.02012
H          4.37641        1.08489       -0.46385
C          5.33029       -0.84722       -0.32530
H          6.32573       -0.41706       -0.12928
H          5.49400       -1.72734       -0.97347
C          4.68467       -1.30268        0.97915
H          4.62106       -0.44404        1.67211
H          5.31304       -2.05741        1.47884
C          3.28436       -1.85864        0.74822
H          3.35396       -2.78247        0.14415
H          2.81399       -2.14603        1.70296
