39
Benzofuran_H13_deriv1_Int2_Sub5.log	Energy: -969713.5367795
C         -0.43473       -0.61648       -0.48778
C         -1.73541       -0.00329       -0.24866
C         -0.72634       -1.68192       -1.29285
C         -2.67006       -0.79079       -0.94881
C         -2.18461        1.10066        0.50216
Cl         0.30015       -2.85886       -1.96606
O         -2.04171       -1.81898       -1.58186
C         -4.03435       -0.54482       -0.96956
C         -3.55729        1.35587        0.47875
C         -1.22477        1.97604        1.27733
C         -4.46234        0.55906       -0.23811
H         -4.71963       -1.18384       -1.52774
H         -3.94744        2.20784        1.04091
H         -5.52571        0.80833       -0.21731
O          1.88286       -1.38934        1.22977
C          1.19790       -2.16365        1.90062
O         -0.09379       -2.25689        1.80506
C          1.82549       -3.08321        2.89139
H          2.88445       -2.83670        3.01823
H          1.28991       -3.01824        3.84856
H          1.72254       -4.11684        2.52781
H         -0.39816       -1.68053        1.04809
Pd         1.35319        0.09330       -0.09002
O          3.08224        1.43967       -0.17407
C          2.41560        2.11315       -0.99554
O          1.24589        1.70337       -1.31776
C          2.92303        3.38827       -1.58387
H          2.40296        4.23055       -1.10220
H          4.00167        3.48374       -1.41257
H          2.69232        3.42637       -2.65697
H         -0.25233        1.45100        1.28059
C         -1.00883        3.31382        0.57012
H         -0.27323        3.92571        1.11702
H         -0.63255        3.15547       -0.45028
H         -1.94859        3.88634        0.51255
C         -1.65161        2.16151        2.73101
H         -1.79427        1.19259        3.23345
H         -0.88809        2.72743        3.28715
H         -2.59682        2.72165        2.81039
