29
Benzoisoxazole_H10_Int2_Sub26.log	Energy: -905801.2628116
C          0.11872       -0.19072       -0.08029
C          0.66397       -1.22012        0.73071
C          0.94787        0.64897       -0.82788
C          2.03251       -1.42051        0.83009
H         -0.02026       -1.88091        1.26763
C          2.31970        0.42396       -0.72091
H          0.55922        1.43691       -1.47544
C          2.86589       -0.57536        0.08760
H          2.45062       -2.21219        1.45530
O          3.30964        1.09788       -1.33723
C          4.26910       -0.39875       -0.13340
N          4.52209        0.57256       -0.96042
Cl         5.52312       -1.31383        0.56803
O         -1.74659        2.01516       -0.34601
C         -1.25014        2.74813        0.51018
O         -0.58730        2.29662        1.53989
C         -1.35003        4.23006        0.42949
H         -1.64287        4.63922        1.40595
H         -0.35508        4.63524        0.18864
H         -2.06575        4.51775       -0.34718
H         -0.48120        1.32302        1.43239
Pd        -1.83007       -0.04586       -0.17633
O         -3.95792       -0.67507       -0.22534
C         -3.52276       -1.83942       -0.07819
O         -2.25788       -2.01806        0.03191
C         -4.42346       -3.03169       -0.05598
H         -5.45305       -2.72571        0.16440
H         -4.39811       -3.51097       -1.04670
H         -4.06565       -3.76523        0.67846
