45
Benzooxazole_H10_Int2_Sub27.log	Energy: -764664.1163565
C         -1.08830        0.29542        0.37625
C         -0.75689        1.35284        1.25459
C         -0.08503       -0.39800       -0.31716
C          0.56071        1.75469        1.46532
H         -1.55784        1.86523        1.79413
C          1.21562        0.02926       -0.09640
H         -0.31444       -1.24482       -0.96639
C          1.56181        1.07757        0.76763
H          0.81001        2.56541        2.15248
O          2.37215       -0.44756       -0.62877
N          2.94014        1.22507        0.74803
C          3.35540        0.32010       -0.07333
C          4.75159       -0.00396       -0.46685
O         -3.67111        1.62428        0.16859
C         -3.29909        2.51062       -0.60069
O         -2.25534        2.40089       -1.37487
C         -4.01760        3.81088       -0.70205
H         -3.37029        4.60512       -0.30030
H         -4.20815        4.04783       -1.75796
H         -4.95425        3.76924       -0.13711
H         -1.77907        1.56789       -1.13681
Pd        -2.93759       -0.31318        0.16491
O         -4.64933       -1.72709       -0.06702
C         -3.78068       -2.62744       -0.05819
O         -2.54531       -2.30224        0.04154
C         -4.13675       -4.07859       -0.13074
H         -4.09195       -4.50417        0.88351
H         -5.15319       -4.20137       -0.52333
H         -3.40871       -4.61831       -0.75068
H          4.78849        0.04020       -1.57263
C          5.12237       -1.43809       -0.05593
H          4.41106       -2.14915       -0.50328
H          5.01302       -1.52568        1.03974
C          6.55337       -1.77325       -0.45798
H          6.80758       -2.79156       -0.12277
H          6.62654       -1.78244       -1.56069
C          7.54533       -0.76055        0.10366
H          8.56836       -1.00084       -0.22789
H          7.55034       -0.83274        1.20634
C          7.17398        0.66195       -0.30199
H          7.28145        0.76652       -1.39713
H          7.87396        1.38495        0.14629
C          5.74491        1.00782        0.09898
H          5.64884        1.01403        1.19787
H          5.47374        2.02183       -0.23182
