38
Benzoisoxazole_H10_Int2_Sub13.log	Energy: -691433.6093038
C         -0.32223       -0.47005       -0.44405
C         -0.54724       -1.20649       -1.63810
C         -1.36254       -0.19304        0.45687
C         -1.80263       -1.67874       -1.98708
H          0.30353       -1.41720       -2.29060
C         -2.61544       -0.69907        0.07570
C         -1.16811        0.56002        1.75364
C         -2.85665       -1.41453       -1.10213
H         -1.95805       -2.24277       -2.90903
O         -3.76972       -0.58399        0.76399
C         -4.25885       -1.69226       -1.01819
N         -4.77858       -1.20639        0.06994
H         -4.89816       -2.23239       -1.71651
O          1.17245        2.08602       -0.13227
C          0.38045        2.74786       -0.80109
O         -0.54941        2.22761       -1.55221
C          0.40407        4.23740       -0.77729
H          0.14575        4.64214       -1.76392
H         -0.36000        4.58054       -0.06183
H          1.38569        4.59148       -0.44471
H         -0.56318        1.24781       -1.41821
Pd         1.53675        0.04831       -0.08226
O          3.71387       -0.21144        0.30402
C          3.48057       -1.43974        0.24193
O          2.28557       -1.83650        0.00573
C          4.54645       -2.46624        0.45930
H          5.53848       -2.00326        0.39964
H          4.41376       -2.90995        1.45778
H          4.44761       -3.27491       -0.27731
H         -0.11614        0.88854        1.76396
C         -2.05597        1.80219        1.83802
H         -1.81139        2.38836        2.73716
H         -1.92494        2.45187        0.95849
H         -3.12011        1.52890        1.88917
C         -1.36965       -0.36573        2.95403
H         -0.68817       -1.22761        2.89988
H         -1.16807        0.17252        3.89322
H         -2.40217       -0.74451        2.99381
