45
Benzoisoxazole_H9_Int2_Sub3.log	Energy: -764633.5322478
C          0.05323       -1.03225        0.24987
C         -1.16796       -0.49313       -0.18166
C          0.14726       -2.38465        0.67119
C         -2.28195       -1.36397       -0.16087
C         -1.28032        0.93128       -0.66128
C         -0.94667       -3.23730        0.70468
H          1.12529       -2.77217        0.96818
C         -2.15322       -2.68761        0.27681
C         -3.67642       -1.30119       -0.50104
H         -0.87140       -4.27551        1.02979
O         -3.34102       -3.30938        0.20427
H         -4.25975       -0.47222       -0.89907
N         -4.27654       -2.43409       -0.28360
O          1.18942        1.41998        1.53704
C          0.46243        1.34770        2.52698
O         -0.26311        0.30580        2.81921
C          0.32697        2.49268        3.47088
H          1.20472        3.14394        3.39865
H         -0.56686        3.06882        3.18302
H          0.17916        2.13203        4.49643
H         -0.19869       -0.34831        2.07650
Pd         1.74754       -0.03087        0.16732
O          3.82999        0.44612       -0.46420
C          3.74463       -0.57807       -1.17872
O          2.66332       -1.26500       -1.15831
C          4.85585       -1.01889       -2.07771
H          5.78189       -0.48843       -1.82671
H          4.99526       -2.10559       -1.99901
H          4.58056       -0.79595       -3.11973
H         -0.28428        1.38627       -0.52379
C         -2.27348        1.77520        0.14706
H         -2.03748        1.70805        1.22171
H         -3.29087        1.36181        0.04114
C         -2.26918        3.22473       -0.32404
H         -3.00123        3.81480        0.25106
H         -1.27781        3.66821       -0.11801
C         -2.56211        3.32192       -1.81784
H         -2.52137        4.37205       -2.14900
H         -3.59609        2.97849       -2.00459
C         -1.59590        2.46936       -2.63375
H         -0.57624        2.88417       -2.53876
H         -1.85076        2.51768       -3.70463
C         -1.58530        1.01968       -2.16211
H         -2.56418        0.55327       -2.37116
H         -0.83664        0.43390       -2.71849
