35
Benzothiophene_H9_Int2_Sub23.log	Energy: -869430.4683122
C         -0.02634       -0.74052        0.92660
C          1.28170       -0.38071        0.58491
C         -0.18529       -1.79391        1.83412
C          2.42965       -1.03565        1.10653
S          1.73129        0.89304       -0.52607
C          0.93379       -2.44760        2.37413
H         -1.18875       -2.11181        2.12814
C          2.22665       -2.08551        2.01937
C          3.64633       -0.49356        0.58573
C          3.43536        0.54159       -0.29319
H          0.78053       -3.26288        3.08605
H          3.08603       -2.60973        2.44399
H          4.63962       -0.85171        0.85950
N          4.36406        1.30286       -0.93812
O         -2.18818       -1.47982       -0.86189
C         -1.54914       -2.35648       -1.44272
O         -0.25608       -2.49129       -1.37540
C         -2.23233       -3.37554       -2.29053
H         -3.28729       -3.11328       -2.41932
H         -1.72587       -3.44814       -3.26296
H         -2.14605       -4.35831       -1.80288
H          0.11056       -1.85869       -0.70776
Pd        -1.54275        0.20839        0.13981
O         -2.94449        1.87562       -0.34259
C         -2.21232        2.57230        0.39629
O         -1.18860        2.03771        0.94742
C         -2.50366        4.01297        0.67786
H         -3.26732        4.38949       -0.01281
H         -2.86853        4.10763        1.71180
H         -1.58103        4.60404        0.59918
H          5.31081        0.95063       -0.90291
C          4.02977        2.19395       -2.01367
H          4.91901        2.77327       -2.29579
H          3.25976        2.91343       -1.68952
H          3.64978        1.67533       -2.91514
