38
Benzoisoxazole_H10_Int2_Sub21.log	Energy: -691434.4136643
C          0.23144        0.18846       -0.25165
C          0.97130       -0.84915        0.36962
C          0.87379        1.25511       -0.88073
C          2.36227       -0.86341        0.40185
H          0.41419       -1.67595        0.81372
C          2.26808        1.23298       -0.84667
H          0.33461        2.06182       -1.38002
C          3.00814        0.22117       -0.22713
C          3.17275       -1.98540        1.01107
O          3.10480        2.14645       -1.36828
C          4.35664        0.65027       -0.44920
N          4.40110        1.76898       -1.11256
H          5.29293        0.18058       -0.14781
O         -1.96956        2.06691       -0.02549
C         -1.51222        2.71638        0.91532
O         -0.66994        2.22611        1.78317
C         -1.87451        4.14329        1.13244
H         -2.11520        4.31156        2.19091
H         -0.99987        4.76686        0.89119
H         -2.71613        4.42050        0.48968
H         -0.39701        1.33018        1.47425
Pd        -1.71739        0.02457       -0.25375
O         -3.72394       -0.94041       -0.34558
C         -3.09725       -2.01958       -0.43515
O         -1.81600       -1.99971       -0.40694
C         -3.79195       -3.33302       -0.60436
H         -4.84049       -3.25103       -0.29428
H         -3.75568       -3.61685       -1.66737
H         -3.27347       -4.11417       -0.03291
H          4.04047       -1.51398        1.50723
C          2.41832       -2.78664        2.06404
H          3.09079       -3.51388        2.54318
H          2.00312       -2.13708        2.84911
H          1.58697       -3.35547        1.61926
C          3.71156       -2.90103       -0.09285
H          4.29265       -2.34018       -0.83978
H          4.36116       -3.68319        0.32996
H          2.88030       -3.39401       -0.62077
