33
Benzoisoxazole_H10_Int2_Sub32.log	Energy: -689302.1982606
C          0.06661       -0.22789       -0.03881
C          0.57300       -1.22273        0.83537
C          0.92725        0.55138       -0.81687
C          1.93684       -1.44703        0.96521
H         -0.13390       -1.83771        1.39678
C          2.29265        0.30254       -0.67833
H          0.56570        1.31330       -1.50990
C          2.80094       -0.66424        0.19208
H          2.32449       -2.21308        1.63971
O          3.30114        0.92148       -1.31627
C          4.21659       -0.53850       -0.01172
N          4.50198        0.38392       -0.88894
O          5.13146       -1.26608        0.60966
O         -1.73713        2.02067       -0.37321
C         -1.20823        2.75884        0.45834
O         -0.52510        2.31658        1.47842
C         -1.29057        4.24109        0.35589
H         -1.54692        4.67034        1.33397
H         -0.29832        4.62801        0.07701
H         -2.02636        4.52608       -0.40284
H         -0.42279        1.34081        1.38042
Pd        -1.87556       -0.03561       -0.17514
O         -4.02241       -0.61612       -0.25291
C         -3.61562       -1.78684       -0.07894
O         -2.35829       -1.99440        0.05657
C         -4.54468       -2.95810       -0.05323
H         -5.57081       -2.62486        0.14251
H         -4.51223       -3.45545       -1.03479
H         -4.21770       -3.68659        0.70040
C          6.47853       -1.00062        0.26794
H          6.65092       -1.17280       -0.80591
H          6.74180        0.04405        0.49590
H          7.09049       -1.68599        0.86589
