39
Benzofuran_H13_deriv1_Int2_Sub13.log	Energy: -969712.9983199
C          0.00042        0.16565        0.13800
C         -1.06129       -0.66451       -0.40769
C         -0.67713        1.14799        0.80592
C         -2.27207       -0.06997       -0.01984
C         -1.09816       -1.83409       -1.17893
Cl        -0.10617        2.48164        1.69950
O         -2.02639        1.04513        0.72720
C         -3.54130       -0.54455       -0.35216
C         -2.34410       -2.33642       -1.52843
H         -0.17228       -2.33200       -1.47062
C         -3.53574       -1.70531       -1.12822
C         -4.78158        0.16087        0.14828
H         -2.40787       -3.24765       -2.12782
H         -4.48766       -2.14166       -1.43628
O          2.48612        1.68195       -0.31679
C          1.95796        2.47712       -1.09564
O          0.82921        2.25167       -1.70168
C          2.57697        3.79994       -1.38382
H          3.62938        3.79880       -1.08178
H          2.46668        4.04925       -2.44711
H          2.03171        4.56053       -0.80320
H          0.42579        1.43099       -1.31100
Pd         1.91733       -0.24878        0.09132
O          3.76957       -1.41236        0.18759
C          3.03899       -2.40310        0.42784
O          1.77020       -2.23471        0.46249
C          3.59969       -3.75984        0.70190
H          2.96328       -4.53171        0.24950
H          4.62776       -3.82807        0.32662
H          3.60520       -3.92585        1.79013
H         -4.59190        1.24283        0.03218
C         -6.03622       -0.18252       -0.64280
H         -6.88164        0.43353       -0.30152
H         -5.90005       -0.00691       -1.72056
H         -6.32572       -1.23636       -0.50390
C         -4.97831       -0.10653        1.64344
H         -4.09382        0.19519        2.22249
H         -5.84553        0.45212        2.02905
H         -5.15395       -1.17879        1.82413
