32
Benzoisoxazole_H9_Int2_Sub9.log	Energy: -828875.6463335
C         -0.58531       -0.08319       -0.32937
C         -1.42932        0.51372       -1.26335
C         -1.13325       -1.00463        0.60608
C         -2.78966        0.17315       -1.27102
H         -1.03782        1.23404       -1.98566
C         -2.48406       -1.34800        0.61880
C         -0.25182       -1.64726        1.64648
C         -3.28614       -0.74295       -0.34101
C         -3.96492        0.51353       -2.01829
H         -2.89143       -2.04906        1.34646
O         -4.60654       -0.91108       -0.52895
H         -4.07674        1.19682       -2.85994
N         -5.00924       -0.12331       -1.57520
O          0.82639        2.34906       -0.02152
C          0.31709        2.78377        1.01015
O          0.01961        2.04616        2.04229
C         -0.02056        4.22565        1.16400
H          0.38983        4.80006        0.32752
H         -1.11619        4.32903        1.18686
H          0.36394        4.59980        2.12268
H          0.23219        1.10346        1.87284
Pd         1.32112        0.39260       -0.44847
O          3.47881        0.30120       -0.82387
C          3.29746       -0.90963       -1.10096
O          2.11508       -1.38833       -1.01803
C          4.41169       -1.80401       -1.53735
H          5.37719       -1.30170       -1.40645
H          4.38100       -2.74137       -0.96496
H          4.27065       -2.06146       -2.59777
F         -0.95490       -2.30934        2.56490
F          0.45806       -0.70288        2.33069
F          0.63534       -2.48815        1.13888
