33
Benzooxazole_H10_Int2_Sub24.log	Energy: -689322.6847944
C          0.26835       -0.22351        0.07743
C          1.17566        0.58775        0.78270
C          0.71301       -1.31171       -0.68649
C          2.55910        0.36756        0.77122
H          0.82137        1.42590        1.38701
C          2.08564       -1.50574       -0.69168
H          0.02753       -1.97963       -1.20872
C          3.02184       -0.71739       -0.00113
O          3.31313        1.21062        1.48826
O          2.78908       -2.47131       -1.34471
N          4.29115       -1.22602       -0.25386
C          4.08149       -2.22882       -1.02885
H          4.81945       -2.90452       -1.45953
O         -1.41162        2.14620        0.10286
C         -0.81052        2.73836       -0.79348
O         -0.10366        2.13435       -1.70835
C         -0.82685        4.22346       -0.89641
H          0.16277        4.60372       -0.59953
H         -0.99653        4.52601       -1.93853
H         -1.59517        4.63862       -0.23629
H         -0.03980        1.17806       -1.47034
Pd        -1.65986        0.09271        0.19170
O         -3.83706       -0.35877        0.34728
C         -3.49132       -1.56135        0.32976
O         -2.24808       -1.85152        0.22328
C         -4.48031       -2.67612        0.45913
H         -4.46430       -3.04347        1.49673
H         -5.48970       -2.31782        0.22436
H         -4.19857       -3.51218       -0.19453
C          4.70793        1.02061        1.56291
H          4.96046        0.03667        1.98654
H          5.18256        1.09621        0.57299
H          5.08706        1.81451        2.21907
