33
Benzo13dioxol_H8_deriv1_Int2_Sub22.log	Energy: -943693.8901314
C         -0.47774       -0.08899       -0.32204
C         -1.03877        1.08839        0.14475
C         -1.36259       -0.97600       -0.97967
C         -2.39596        1.38774       -0.01109
O         -0.45093        2.08911        0.85476
C         -2.71133       -0.66630       -1.13002
H         -0.99332       -1.91939       -1.38633
C         -3.26961        0.52941       -0.64560
O         -2.66262        2.57706        0.57801
C         -1.39277        3.15052        0.89435
Cl        -3.75325       -1.78971       -1.94803
H         -4.32816        0.75741       -0.76283
C         -1.41970        3.79863        2.24541
H         -1.13646        3.87226        0.09181
O          1.18572       -2.24067        0.75548
C          0.40834       -2.52400        1.66724
O         -0.54834       -1.73897        2.07361
C          0.49565       -3.82607        2.38564
H          1.40810       -4.35660        2.09548
H          0.47119       -3.65320        3.47046
H         -0.38796       -4.43063        2.13058
H         -0.60466       -0.96688        1.45657
Pd         1.45022       -0.42494       -0.18902
O          3.62033       -0.14018       -0.42978
C          3.32678        0.94344       -0.98867
O          2.09477        1.26976       -1.09585
C          4.36777        1.85401       -1.55600
H          4.37115        1.75033       -2.65178
H          4.12280        2.89873       -1.32217
H          5.35770        1.58835       -1.16662
H         -2.16532        4.60524        2.25874
H         -0.43213        4.22184        2.47404
H         -1.67966        3.05140        3.00805
