41
Benzoisoxazole_H9_Int2_Sub20.log	Energy: -716082.6367176
C         -0.00967        0.28725       -0.32546
C         -0.54119        1.40154       -0.96688
C         -0.86627       -0.69896        0.22718
C         -1.93981        1.50305       -1.02723
H          0.09712        2.16649       -1.41534
C         -2.25838       -0.62752        0.19386
H         -0.39578       -1.57266        0.67991
C         -2.75183        0.51817       -0.45576
C         -2.89659        2.42575       -1.56143
C         -3.18101       -1.68777        0.78291
O         -4.04534        0.85279       -0.64432
H         -2.72890        3.35574       -2.10473
N         -4.11604        2.03762       -1.33196
O          2.35378        1.95171        0.05791
C          1.90390        2.62678        0.98417
O          0.93120        2.22828        1.75676
C          2.43671        3.98103        1.29810
H          3.31056        4.19637        0.67513
H          1.64792        4.72666        1.11783
H          2.69755        4.03491        2.36449
H          0.57050        1.38635        1.38633
Pd         1.91816       -0.05121       -0.24159
O          3.82976       -1.20177       -0.26524
C          3.10839       -2.21349       -0.40945
O          1.83483       -2.07137       -0.44108
C          3.68161       -3.58484       -0.57559
H          3.65645       -3.85131       -1.64336
H          4.72107       -3.60719       -0.22736
H          3.07086       -4.31989       -0.03482
C         -2.38933       -2.82548        1.42617
H         -3.08715       -3.57054        1.83711
H         -1.74290       -3.33859        0.69818
H         -1.75835       -2.46825        2.25444
C         -4.07304       -1.03916        1.85263
H         -4.68710       -0.23118        1.43129
H         -4.75063       -1.79186        2.28566
H         -3.46375       -0.62049        2.66861
C         -4.05424       -2.26834       -0.34041
H         -4.73043       -3.03658        0.06681
H         -4.66902       -1.49199       -0.81651
H         -3.43024       -2.73873       -1.11568
