41
Benzoisoxazole_H9_Int2_Sub28.log	Energy: -716086.2158559
C         -0.35669       -0.65054       -0.25722
C          0.85843       -0.14348        0.20252
C         -0.38586       -1.85131       -1.01034
C          2.03947       -0.83252       -0.11865
H          0.88966        0.76904        0.80145
C          0.77186       -2.54502       -1.33868
H         -1.35451       -2.25026       -1.32160
C          1.97177       -2.00405       -0.87814
C          3.45741       -0.68060        0.11051
H          0.74974       -3.46878       -1.91877
O          3.20884       -2.48734       -1.07229
C          4.17851        0.40856        0.86625
N          4.11193       -1.65587       -0.45550
O         -1.24473        2.09951        0.09484
C         -0.67509        2.56153       -0.89426
O         -0.35934        1.84735       -1.93918
C         -0.26913        3.99170       -0.96738
H         -0.75888        4.56384       -0.17282
H          0.82388        4.04956       -0.84526
H         -0.51099        4.40215       -1.95683
H         -0.54010        0.89963       -1.72840
Pd        -2.06623        0.19919        0.18689
O         -4.22566        0.38103        0.70531
C         -4.25543       -0.86628        0.61276
O         -3.18354       -1.49204        0.29210
C         -5.49291       -1.65787        0.89198
H         -5.41800       -2.08509        1.90375
H         -6.37684       -1.01090        0.84330
H         -5.57808       -2.49263        0.18375
C          5.68684        0.16367        0.84094
H          6.20290        0.96320        1.39426
H          5.93960       -0.80144        1.30187
H          6.07005        0.14479       -0.18900
C          3.86878        1.75685        0.19970
H          2.78995        1.97367        0.19798
H          4.37701        2.57065        0.74008
H          4.21765        1.76754       -0.84396
C          3.68321        0.41470        2.31898
H          4.19066        1.20966        2.88742
H          2.59939        0.59029        2.38511
H          3.89825       -0.54651        2.80923
