34
Benzofuran_H9_Int2_Sub24.log	Energy: -679259.7689914
C         -0.04581        1.08065       -0.29215
C         -1.34958        0.92875        0.16961
C          0.21903        2.30084       -0.93285
C         -2.37637        1.88184        0.02276
O         -1.84633       -0.17871        0.80679
C         -0.77903        3.27657       -1.09658
H          1.23026        2.50202       -1.29471
C         -2.07528        3.08622       -0.62811
C         -3.54742        1.30102        0.62718
C         -3.14923        0.07364        1.06676
H         -0.52357        4.21081       -1.60290
H         -2.83915        3.85439       -0.76523
H         -4.54261        1.72338        0.72859
O         -3.83824       -0.87882        1.67088
O          0.15507       -1.80815       -0.66514
C         -0.59089       -1.82296       -1.64308
O         -0.84235       -0.78160       -2.38482
C         -1.30445       -3.06480       -2.05387
H         -0.87224       -3.93354       -1.54669
H         -2.36447       -2.96175       -1.77390
H         -1.26262       -3.18275       -3.14481
H         -0.44549        0.02047       -1.96139
Pd         1.36114       -0.25901       -0.02775
O          3.33879       -1.11760        0.48942
C          3.67378        0.05824        0.76230
O          2.82219        1.00026        0.60121
C          5.02864        0.39558        1.29812
H          5.38630        1.33669        0.85981
H          4.95200        0.54246        2.38639
H          5.73098       -0.42216        1.09717
C         -3.12378       -1.97314        2.21172
H         -2.58189       -2.52705        1.42954
H         -2.39816       -1.64118        2.97071
H         -3.87236       -2.62524        2.67632
