39
Benzo13dioxol_H8_deriv1_Int2_Sub13.log	Energy: -992987.4960862
C         -0.05324        0.04945       -0.17768
C          0.63923       -0.87603        0.58662
C          0.75026        0.85983       -1.00774
C          2.02882       -0.99180        0.54745
O          0.14943       -1.74787        1.51315
C          2.13849        0.73154       -1.03514
H          0.28912        1.60781       -1.65540
C          2.84880       -0.20581       -0.25041
O          2.41585       -1.94924        1.43859
C          1.22141       -2.60596        1.82735
Cl         3.01423        1.79421       -2.10433
C          4.35121       -0.35607       -0.24505
H          1.24224       -2.79947        2.90971
H          1.12175       -3.55430        1.26224
O         -2.07924        2.12209        0.24778
C         -1.40973        2.75033        1.06825
O         -0.36756        2.26288        1.67838
C         -1.74125        4.15817        1.42541
H         -2.70521        4.44078        0.99052
H         -1.75743        4.26876        2.51852
H         -0.94771        4.81714        1.04162
H         -0.15646        1.37990        1.28215
Pd        -2.01384        0.10885       -0.20046
O         -4.09959       -0.55924       -0.43088
C         -3.61695       -1.68993       -0.67819
O         -2.34672       -1.83825       -0.65613
C         -4.47592       -2.86398       -1.02247
H         -4.41421       -3.04346       -2.10666
H         -4.10456       -3.76445       -0.51516
H         -5.51895       -2.66427       -0.74977
H          4.74158        0.37285       -0.96994
C          4.93333       -0.01080        1.12631
H          6.03212       -0.07962        1.10553
H          4.66249        1.01353        1.42340
H          4.56351       -0.70097        1.89951
C          4.77187       -1.75029       -0.71098
H          4.37578       -1.96744       -1.71419
H          5.86960       -1.82429       -0.75475
H          4.40585       -2.52607       -0.02209
