27
Benzene_H10_Int2_Sub15.log	Energy: -800800.8212095
C          0.68775       -0.91352       -0.19062
C          1.73837       -0.93311        0.73835
C          0.73886       -1.85257       -1.23399
C          2.79789       -1.83523        0.64002
Cl         1.75161        0.19930        2.06355
C          1.79589       -2.75553       -1.35146
H         -0.07943       -1.88261       -1.95829
C          2.82566       -2.74641       -0.41252
H          3.58937       -1.81548        1.39149
H          1.80841       -3.47295       -2.17529
H          3.65487       -3.45289       -0.49301
O          0.18703        2.02140       -0.10593
C          1.23737        2.30163       -0.67819
O          1.94701        1.44544       -1.35988
C          1.81224        3.67392       -0.61139
H          1.03648        4.39243       -0.32651
H          2.59951        3.67089        0.15893
H          2.27771        3.94486       -1.56753
H          1.55880        0.54432       -1.24823
Pd        -0.88221        0.25628       -0.04734
O         -3.01141        0.82869        0.11116
C         -3.25009       -0.40108        0.09781
O         -2.27279       -1.22122       -0.01027
C         -4.63640       -0.94430        0.23276
H         -4.78278       -1.28490        1.26926
H         -5.37331       -0.16449        0.00643
H         -4.76939       -1.81315       -0.42536
