32
Benzoisoxazole_H9_Int2_Sub30.log	Energy: -642137.3100030
C          0.33083       -0.46829       -0.13552
C          1.41513        0.09847        0.53569
C          0.53595       -1.55624       -1.02238
C          2.69235       -0.42906        0.29562
H          1.27797        0.92653        1.23621
C          1.79742       -2.08057       -1.27764
H         -0.33518       -2.00926       -1.50237
C          2.86172       -1.48916       -0.59826
C          4.03497       -0.17168        0.74592
H          1.94987       -2.91696       -1.96133
O          4.16239       -1.81397       -0.66763
C          4.50122        0.84880        1.72017
N          4.87376       -0.98860        0.17153
O         -0.95920        2.10599        0.32861
C         -0.37012        2.72374       -0.55881
O          0.17167        2.14770       -1.59622
C         -0.21819        4.20408       -0.51538
H         -0.77321        4.61555        0.33354
H          0.85007        4.45293       -0.42946
H         -0.57775        4.63710       -1.45960
H          0.12286        1.16968       -1.46467
Pd        -1.51202        0.11429        0.19079
O         -3.71364       -0.02851        0.49381
C         -3.56546       -1.25588        0.30043
O         -2.39385       -1.70829        0.04449
C         -4.70511       -2.22014        0.38615
H         -4.66776       -2.72493        1.36370
H         -5.66000       -1.68874        0.29627
H         -4.61024       -2.99080       -0.39020
H          4.24300        1.86294        1.37799
H          5.58981        0.78289        1.84199
H          4.02380        0.69824        2.70065
