34
Benzoisoxazole_H11_deriv1_Int2_Sub15.log	Energy: -965166.6780855
C         -0.14271       -0.14565       -0.04727
C         -1.09687        0.79007       -0.46169
C         -0.69844       -1.36609        0.35222
C         -2.48856        0.58473       -0.46145
O         -0.84825        2.04732       -0.88711
C         -2.07471       -1.60689        0.35872
H         -0.03705       -2.18148        0.65367
C         -3.03478       -0.65611       -0.04580
C         -2.98852        1.84805       -0.92079
N         -2.02912        2.69095       -1.16033
Cl        -2.65001       -3.16941        0.88459
N         -4.35969       -0.94655       -0.01818
H         -4.01295        2.17724       -1.08214
O          1.81238        2.05539        0.04164
C          1.18681        2.68715        0.89219
O          0.45791        2.11786        1.81402
C          1.18226        4.17236        0.90999
H          1.11898        4.55309        1.93672
H          2.06526        4.55860        0.38998
H          0.27874        4.49132        0.36518
H          0.39753        1.15440        1.60548
Pd         1.82164        0.01151       -0.12878
O          3.92968       -0.62826       -0.28492
C          3.48067       -1.79472       -0.35683
O          2.21337       -1.97197       -0.28663
C          4.36797       -2.98119       -0.55141
H          3.99456       -3.83414        0.03045
H          4.34786       -3.26631       -1.61452
H          5.39849       -2.73454       -0.26933
H         -4.58709       -1.88196        0.29183
C         -5.41642       -0.08164       -0.44546
H         -6.37139       -0.61306       -0.34478
H         -5.31356        0.21754       -1.50376
H         -5.48380        0.83554        0.16629
