29
Benzoisoxazole_H9_Int2_Sub10.log	Energy: -905802.4551674
C         -0.57273       -0.19715        0.06704
C         -1.27105       -1.04869       -0.79084
C         -1.30362        0.49959        1.06607
C         -2.66138       -1.17547       -0.65071
H         -0.73269       -1.62324       -1.54824
C         -2.67830        0.38904        1.23748
Cl        -0.44997        1.55952        2.14897
C         -3.32984       -0.46289        0.34935
C         -3.73053       -1.89407       -1.27806
H         -3.20560        0.93262        2.02099
O         -4.64177       -0.73803        0.30144
H         -3.69711       -2.59066       -2.11561
N         -4.87401       -1.63130       -0.71736
O          1.49550        1.90784       -0.39115
C          0.71380        2.66082       -0.96762
O         -0.42920        2.27738       -1.46578
C          1.00640        4.11264       -1.11975
H          2.07680        4.29657       -0.97997
H          0.66178        4.47540       -2.09648
H          0.44388        4.65278       -0.34190
H         -0.58458        1.33331       -1.22040
Pd         1.39034       -0.12828       -0.07215
O          3.46614       -0.85614       -0.11789
C          2.98035       -1.99560        0.07314
O          1.70785       -2.11694        0.15530
C          3.83595       -3.20924        0.23754
H          4.83750       -3.02497       -0.16908
H          3.92297       -3.43636        1.31117
H          3.36677       -4.07407       -0.24975
