35
Benzofuran_H9_Int2_Sub15.log	Energy: -666800.3699592
C          0.54666        0.31737       -0.14863
C          1.60817       -0.35992       -0.74710
C          0.84445        1.57536        0.38489
C          2.91348        0.16281       -0.81376
O          1.57083       -1.59905       -1.31935
C          2.14740        2.13763        0.33949
H          0.02876        2.15372        0.82094
C          3.18804        1.41947       -0.26845
C          3.68926       -0.84918       -1.48664
C          2.82512       -1.86236       -1.75449
N          2.40086        3.37102        0.90274
H          4.19681        1.83825       -0.30802
H          4.74759       -0.82075       -1.73634
H          2.95853       -2.82129       -2.25039
O         -0.74492       -2.24640        0.42993
C          0.09551       -2.58401        1.26102
O          0.87205       -1.74928        1.89395
C          0.31361       -4.01747        1.60180
H         -0.54188       -4.61662        1.27305
H          1.21893       -4.35641        1.07445
H          0.49138       -4.13276        2.67881
H          0.76385       -0.84827        1.50074
Pd        -1.30147       -0.33324       -0.09018
O         -3.52147       -0.28730       -0.20857
C         -3.38765        0.92525       -0.48920
O         -2.21155        1.42963       -0.53055
C         -4.55803        1.80083       -0.80844
H         -4.40674        2.80510       -0.39111
H         -4.63600        1.90115       -1.90193
H         -5.48299        1.35261       -0.42629
H          3.26537        3.80424        0.61194
C          1.35876        4.25963        1.32664
H          1.80874        5.19639        1.68262
H          0.78643        3.83515        2.16866
H          0.63456        4.50799        0.52579
