46
Benzofuran_H13_deriv1_Int2_Sub11.log	Energy: -1042912.9312853
C         -0.69633        0.13040       -0.14017
C          0.31620       -0.72454        0.45754
C          0.03768        1.05213       -0.83468
C          1.56155       -0.20205        0.06697
C          0.28440       -1.86219        1.27304
Cl        -0.45703        2.37336       -1.79012
O          1.37864        0.89174       -0.72832
C          2.79681       -0.72574        0.44027
C          1.49938       -2.41309        1.66293
H         -0.66935       -2.30315        1.56675
C          2.72380       -1.85710        1.25842
C          4.09242       -0.11529       -0.02765
H          1.50768       -3.30382        2.29554
H          3.65219       -2.32832        1.59126
O         -3.11565        1.77557        0.21348
C         -2.56289        2.57387        0.97179
O         -1.45463        2.31973        1.60357
C         -3.12505        3.93293        1.20255
H         -4.17316        3.96699        0.88768
H         -3.01505        4.21745        2.25697
H         -2.54033        4.64594        0.60036
H         -1.08409        1.46731        1.24940
Pd        -2.63107       -0.19310       -0.11515
O         -4.53400       -1.27411       -0.20609
C         -3.84559       -2.30488       -0.39704
O         -2.56997       -2.19572       -0.41300
C         -4.46294       -3.64408       -0.63336
H         -3.87533       -4.42571       -0.13405
H         -5.50215       -3.64968       -0.28354
H         -4.44831       -3.85355       -1.71397
H          3.83635        0.79220       -0.60153
C          4.85466       -1.05198       -0.97428
H          4.20714       -1.32555       -1.82254
H          5.08085       -1.99283       -0.44102
C          6.15183       -0.42034       -1.46624
H          6.69297       -1.12505       -2.11829
H          5.91091        0.45804       -2.09213
C          7.03636        0.01977       -0.30478
H          7.95024        0.50807       -0.68024
H          7.36911       -0.87319        0.25535
C          6.28549        0.95091        0.64109
H          6.04906        1.89187        0.11180
H          6.92317        1.22902        1.49588
C          4.98970        0.31911        1.13714
H          5.22776       -0.56228        1.75914
H          4.43913        1.01719        1.78802
