35
Benzo13dioxol_H8_deriv1_Int2_Sub31.log	Energy: -978403.2387660
C          0.17782        0.53487       -0.22531
C          1.25792       -0.09304        0.37205
C          0.47220        1.71241       -0.95071
C          2.56774        0.37840        0.25548
O          1.25934       -1.21419        1.14466
C          1.77984        2.18068       -1.05495
H         -0.32504        2.26555       -1.45072
C          2.86818        1.52174       -0.45931
O          3.39916       -0.43890        0.93134
C          2.60185       -1.59008        1.34953
Cl         2.08941        3.63218       -1.95804
H          3.88637        1.89688       -0.55381
H          2.81427       -1.72774        2.42301
N          2.87757       -2.76557        0.64752
O         -2.52370        1.34781        0.61281
C         -2.12624        2.09746        1.50506
O         -0.91143        2.08695        1.97361
C         -3.02608        3.10993        2.12554
H         -4.05310        2.96734        1.77476
H         -2.97261        3.02963        3.22023
H         -2.67057        4.11535        1.85397
H         -0.36489        1.47067        1.42341
Pd        -1.59560       -0.30093       -0.20794
O         -3.15267       -1.82852       -0.53449
C         -2.22898       -2.54451       -0.98753
O         -1.03965       -2.07312       -1.01975
C         -2.46788       -3.92999       -1.49572
H         -2.20771       -3.97561       -2.56341
H         -1.80861       -4.63312       -0.96699
H         -3.51758       -4.21209       -1.35418
H          2.55735       -2.70613       -0.31618
C          4.20257       -3.31568        0.79883
H          4.25319       -4.29738        0.30718
H          4.41367       -3.47545        1.86842
H          5.00795       -2.67642        0.39061
