35
Benzoisoxazole_H8_deriv1_Int2_Sub14.log	Energy: -666791.7808669
C          0.52200        0.61928        0.03105
C          1.50201        0.11188       -0.84645
C          0.92038        1.64113        0.89249
C          2.80167        0.62667       -0.81537
C          1.57562       -0.88236       -1.88736
C          2.24577        2.15639        0.91367
H          0.18695        2.08504        1.57250
C          3.20883        1.64017        0.05350
O          3.55524       -0.00248       -1.72635
C          0.49792       -1.75613       -2.42098
N          2.78000       -0.93248       -2.38641
C          2.58091        3.26681        1.86576
H          4.23553        2.00917        0.04819
O         -0.55393       -1.94288        0.76065
C          0.32930       -2.20020        1.57997
O          1.10468       -1.30835        2.12604
C          0.60142       -3.60229        2.00409
H          0.77395       -3.64307        3.08769
H         -0.22865       -4.25340        1.71123
H          1.52563       -3.93997        1.50949
H          0.95344       -0.42326        1.70735
Pd        -1.28095       -0.11581        0.11086
O         -3.49286       -0.25607       -0.03060
C         -3.45018        0.93634       -0.41138
O         -2.31506        1.52415       -0.48975
C         -4.67926        1.69176       -0.80500
H         -5.57492        1.18154       -0.43140
H         -4.62845        2.72144       -0.42667
H         -4.72662        1.74350       -1.90351
H          3.64900        3.52113        1.83280
H          2.32527        2.99398        2.90155
H          2.00742        4.17542        1.62177
H          0.87963       -2.34705       -3.26316
H         -0.35339       -1.14718       -2.76213
H          0.11615       -2.43436       -1.64402
