33
Benzofuran_H9_deriv1_Int2_Sub9.log	Energy: -1107155.3836613
C          0.19590       -0.08723       -0.08134
C         -0.60750        0.90351       -0.64632
C         -0.49785       -1.17086        0.46248
C         -2.01676        0.86925       -0.68019
O         -0.15841        2.04595       -1.22660
C         -1.90083       -1.23662        0.44942
H          0.05197       -2.01069        0.89106
C         -2.69136       -0.23105       -0.11502
C         -2.40644        2.09003       -1.34277
C         -1.24951        2.73420       -1.63709
Cl        -2.62429       -2.63842        1.16724
C         -4.19590       -0.32566       -0.11122
H         -3.41063        2.43224       -1.56877
H         -1.04998        3.67848       -2.13839
O          2.35528        1.89500        0.26710
C          1.75913        2.55071        1.11904
O          0.82281        2.06011        1.88498
C          2.04786        3.99438        1.33321
H          3.00169        4.26012        0.86606
H          1.23775        4.57522        0.86527
H          2.04956        4.22927        2.40552
H          0.62173        1.14160        1.59196
Pd         2.15904       -0.11851       -0.10170
O          4.19460       -0.93452       -0.26456
C          3.64347       -2.04503       -0.44809
O          2.36332       -2.10515       -0.42370
C          4.42266       -3.28894       -0.72144
H          3.95659       -4.14651       -0.21859
H          4.40427       -3.48567       -1.80440
H          5.46338       -3.16290       -0.40008
F         -4.75652        0.74004       -0.69717
F         -4.68704       -0.38716        1.12825
F         -4.63059       -1.40150       -0.76846
