32
Benzooxazole_H10_Int2_Sub17.log	Energy: -828903.3549240
C          0.04608       -0.38353        0.01119
C         -1.02026        0.41025       -0.46810
C         -0.20386       -1.63509        0.58656
C         -2.34861        0.00545       -0.37617
H         -0.80850        1.37171       -0.93852
C         -1.53589       -2.01490        0.66827
H          0.60604       -2.28374        0.92514
C         -2.60861       -1.23908        0.21072
C         -3.47085        0.86701       -0.88396
O         -2.06379       -3.15954        1.17762
N         -3.78651       -1.92470        0.45041
C         -3.39940       -3.01832        1.00586
H         -4.01836       -3.84446        1.35442
O          1.41480        2.17706       -0.00299
C          0.86427        2.64961        0.99243
O          0.43250        1.91769        1.98306
C          0.61425        4.10868        1.13208
H         -0.45115        4.29357        0.92181
H          0.81012        4.43250        2.16255
H          1.22761        4.66613        0.41674
H          0.53363        0.97057        1.72930
Pd         1.91359        0.17710       -0.18068
O          4.11038        0.00438       -0.45889
C          3.91857       -1.23187       -0.47697
O          2.72477       -1.67489       -0.32103
C          5.02566       -2.20952       -0.70370
H          5.00164       -2.53126       -1.75622
H          5.99484       -1.73984       -0.49795
H          4.88033       -3.10073       -0.07910
F         -3.01409        2.02870       -1.37177
F         -4.33702        1.16200        0.08784
F         -4.15258        0.26734       -1.85955
