42
Benzofuran_H9_deriv1_Int2_Sub4.log	Energy: -994351.6651633
C          0.39303       -0.18810       -0.32304
C          0.62477       -1.33399       -1.09073
C          1.49940        0.65109       -0.04071
C          1.86125       -1.72175       -1.61766
O         -0.32081       -2.25321       -1.42658
C          2.76181        0.24304       -0.58880
C          1.38155        1.93969        0.80810
C          2.95632       -0.89791       -1.35533
C          1.62393       -2.95326       -2.32159
C          0.29874       -3.20610       -2.16270
Cl         4.24489        1.15363       -0.36063
H          3.95421       -1.12773       -1.72927
H          2.34028       -3.56132       -2.86901
H         -0.33791       -4.01494       -2.51356
O         -1.51480       -1.32232        1.65862
C         -0.62440       -1.78814        2.36612
O          0.64557       -1.54636        2.20073
C         -0.93629       -2.69907        3.50472
H         -2.02000       -2.79291        3.62667
H         -0.48971       -3.68488        3.30732
H         -0.47427       -2.31036        4.42332
H          0.77583       -0.98067        1.39558
Pd        -1.53161        0.02580        0.08723
O         -3.63260        0.63990       -0.14714
C         -3.23674        1.35215       -1.09998
O         -1.99041        1.36099       -1.38979
C         -4.17485        2.17837       -1.91989
H         -3.75704        3.18396       -2.06529
H         -4.28051        1.71804       -2.91385
H         -5.15763        2.23188       -1.43697
C          1.75105        3.15956       -0.05487
H          1.65580        4.07783        0.54604
H          2.77309        3.11760       -0.44655
H          1.05692        3.23672       -0.90553
C         -0.03279        2.21801        1.32272
H         -0.41667        1.41430        1.96974
H         -0.00238        3.13313        1.93430
H         -0.74443        2.39110        0.50397
C          2.26730        1.83125        2.06308
H          2.18762        2.75943        2.65054
H          1.92155        1.00239        2.70118
H          3.32600        1.66682        1.83634
