39
Benzofuran_H13_deriv1_Int2_Sub29.log	Energy: -969712.5045453
C          0.23697       -0.45846       -0.37556
C         -1.14318       -0.11016       -0.08310
C          0.12248       -1.61014       -1.10495
C         -1.93900       -1.11283       -0.65890
C         -1.77952        0.93555        0.59885
Cl         1.31544       -2.60476       -1.80523
O         -1.15426       -2.03201       -1.28459
C         -3.32497       -1.13842       -0.58354
C         -3.16482        0.92476        0.68074
H         -1.19023        1.74476        1.03342
C         -3.95109       -0.09701        0.10274
H         -3.89837       -1.94348       -1.04760
H         -3.66597        1.74068        1.20784
C         -5.46150       -0.06378        0.21921
O          2.97980       -0.91881        0.59953
C          2.65798       -1.87552        1.30607
O          1.43650       -2.11485        1.68373
C          3.66793       -2.86792        1.76563
H          4.67702       -2.45532        1.66407
H          3.46214       -3.17072        2.80043
H          3.57411       -3.76235        1.12991
H          0.83182       -1.50234        1.18525
Pd         1.80500        0.65717        0.00489
O          3.05539        2.44508        0.19772
C          2.06082        3.08604       -0.21785
O          0.98314        2.44501       -0.47715
C          2.10119        4.56142       -0.44614
H          1.14844        5.01760       -0.14662
H          2.93986        5.00716        0.10185
H          2.23775        4.74822       -1.52237
H         -5.83978       -0.95827       -0.30460
C         -5.91814       -0.15553        1.67493
H         -7.01702       -0.19390        1.73882
H         -5.51401       -1.05457        2.16373
H         -5.58226        0.71901        2.25460
C         -6.05419        1.16159       -0.47607
H         -5.74692        1.20847       -1.53139
H         -7.15472        1.13875       -0.43853
H         -5.72446        2.09418        0.00881
