34
Benzofuran_H9_Int2_Sub16.log	Energy: -679256.7684733
C          0.54517        0.33995       -0.13726
C          1.65113       -0.30566       -0.68721
C          0.77753        1.62953        0.35970
C          2.93749        0.26809       -0.74066
O          1.68085       -1.56050       -1.22147
C          2.05406        2.22966        0.31321
H         -0.07208        2.18500        0.75816
C          3.14508        1.55304       -0.23494
C          3.77147       -0.73017       -1.36193
C          2.95696       -1.78511       -1.61841
O          2.30328        3.47301        0.78462
H          4.12006        2.04154       -0.25649
H          4.83343       -0.66333       -1.58700
H          3.14059       -2.75214       -2.08133
O         -0.70215       -2.28510        0.33109
C          0.12287       -2.63270        1.17347
O          0.84664       -1.79934        1.86853
C          0.38314       -4.07098        1.45626
H         -0.43761       -4.68475        1.07090
H          1.31761       -4.35107        0.94547
H          0.52970       -4.23011        2.53236
H          0.71332       -0.88791        1.51077
Pd        -1.28755       -0.36192       -0.10815
O         -3.50308       -0.35911       -0.23369
C         -3.39791        0.86747       -0.46012
O         -2.23238        1.39896       -0.47307
C         -4.58649        1.72853       -0.74663
H         -4.45860        2.71838       -0.28906
H         -4.66484        1.87063       -1.83547
H         -5.50178        1.24463       -0.38533
C          1.24693        4.22280        1.31195
H          0.45004        4.39599        0.56724
H          0.79915        3.74043        2.19938
H          1.66844        5.19084        1.61239
