32
Benzoisoxazole_H8_deriv1_Int2_Sub18.log	Energy: -930456.0884693
C         -0.22498       -0.30618       -0.05948
C         -1.16114        0.49289       -0.74631
C         -0.73923       -1.38874        0.65097
C         -2.52849        0.20036       -0.68538
C         -1.14492        1.65125       -1.59214
C         -2.12195       -1.69303        0.71879
H         -0.04909       -2.05832        1.17129
C         -3.03228       -0.87914        0.04192
O         -3.22065        1.09252       -1.40520
H         -0.28943        2.23074       -1.93858
N         -2.34306        1.99134       -1.96615
C         -2.60367       -2.87393        1.50320
Cl        -4.73064       -1.17696        0.08217
O          1.39280        2.06424        0.17977
C          0.72790        2.56450        1.08904
O          0.02047        1.86535        1.93167
C          0.65281        4.03810        1.27704
H          0.65426        4.28858        2.34564
H          1.47927        4.52819        0.75197
H         -0.30353        4.38505        0.85398
H          0.01662        0.92360        1.63620
Pd         1.69787        0.03790       -0.09651
O          3.87389       -0.34332       -0.23453
C          3.56268       -1.55032       -0.35688
O          2.32376       -1.87626       -0.31841
C          4.58362       -2.61924       -0.57595
H          5.57454       -2.26698       -0.26561
H          4.30259       -3.53107       -0.03280
H          4.61230       -2.86438       -1.64879
H         -3.30805       -2.56447        2.29130
H         -1.76495       -3.40609        1.97026
H         -3.14863       -3.57854        0.85560
