34
Benzoisoxazole_H10_Int2_Sub31.log	Energy: -676846.2796721
C          0.12725       -0.16439       -0.12798
C          0.71244       -1.19389        0.64902
C          0.92571        0.69745       -0.88185
C          2.08847       -1.37027        0.70152
H          0.05963       -1.87641        1.19758
C          2.30566        0.49760       -0.82087
H          0.50975        1.49201       -1.50428
C          2.90216       -0.50637       -0.04727
H          2.51049       -2.17115        1.30969
O          3.24108        1.20763       -1.45813
C          4.30975       -0.30202       -0.31123
N          4.49113        0.70947       -1.12705
N          5.37492       -1.01725        0.14653
O         -1.77266        2.02736       -0.23119
C         -1.22798        2.73174        0.61913
O         -0.47172        2.25419        1.56930
C         -1.37451        4.21268        0.62094
H         -1.58167        4.56787        1.63946
H         -0.41855        4.65824        0.30508
H         -2.16898        4.51361       -0.06942
H         -0.33176        1.29319        1.39678
Pd        -1.82463       -0.04151       -0.16587
O         -3.95175       -0.70279       -0.18741
C         -3.49302       -1.86449       -0.11008
O         -2.22410       -2.02990       -0.04378
C         -4.37549       -3.07186       -0.12266
H         -5.40268       -2.79443        0.14244
H         -4.37242       -3.50023       -1.13674
H         -3.98548       -3.83560        0.56302
H          6.27037       -0.60747       -0.08475
C          5.31242       -1.88508        1.28895
H          6.32159       -2.26127        1.50196
H          4.67904       -2.76537        1.09329
H          4.93738       -1.38772        2.20318
