32
Benzoisoxazole_H10_Int2_Sub22.log	Energy: -642135.6350923
C          0.47317       -0.22915       -0.12070
C          0.90565       -1.33078        0.65984
C          1.38593        0.54540       -0.83786
C          2.24477       -1.69243        0.77079
H          0.15103       -1.93323        1.17238
C          2.72550        0.17194       -0.72719
H          1.08624        1.38940       -1.46127
C          3.16460       -0.90369        0.05084
C          2.69569       -2.85773        1.59510
O          3.78142        0.75916       -1.31577
C          4.58104       -0.87211       -0.15374
N          4.92879        0.09759       -0.94911
H          5.35447       -1.52428        0.25200
O         -1.16330        2.16486       -0.25058
C         -0.57500        2.79399        0.62931
O          0.08729        2.22330        1.59810
C         -0.55557        4.28181        0.64959
H         -0.77143        4.64514        1.66351
H          0.45807        4.62216        0.38745
H         -1.27784        4.67800       -0.07128
H          0.12206        1.25449        1.41745
Pd        -1.45040        0.11492       -0.21498
O         -3.63546       -0.29854       -0.30907
C         -3.31576       -1.50604       -0.23349
O         -2.07639       -1.81602       -0.13179
C         -4.32954       -2.60386       -0.28783
H         -5.32608       -2.21278       -0.05056
H         -4.34349       -3.02077       -1.30658
H         -4.05127       -3.41331        0.39984
H          3.39676       -2.54082        2.38411
H          3.22228       -3.60076        0.97483
H          1.84473       -3.35870        2.07574
