34
Benzoisoxazole_H9_Int2_Sub23.log	Energy: -676843.4150788
C         -0.38627        0.02793       -0.24763
C         -1.17241        0.94996       -0.93482
C         -0.95839       -1.07382        0.43600
C         -2.56459        0.73431       -0.91522
H         -0.73642        1.79186       -1.47571
C         -2.34151       -1.29736        0.47645
H         -0.28899       -1.79138        0.91337
C         -3.10649       -0.34457       -0.22573
C         -3.74047        1.35625       -1.45275
N         -2.94673       -2.32959        1.12984
O         -4.44790       -0.35028       -0.34652
H         -3.82328        2.24711       -2.07537
N         -4.82566        0.71912       -1.11726
O          1.53785        2.20355       -0.01647
C          0.95322        2.80345        0.88560
O          0.08522        2.24299        1.68130
C          1.18689        4.25233        1.13974
H          2.02154        4.61261        0.53001
H          0.27039        4.80882        0.89188
H          1.38660        4.41278        2.20836
H         -0.10465        1.33404        1.34210
Pd         1.56843        0.14484       -0.24845
O          3.69945       -0.53020       -0.33154
C          3.22845       -1.68584       -0.41456
O          1.95782       -1.84786       -0.38851
C          4.10154       -2.89074       -0.57456
H          4.10918       -3.18261       -1.63600
H          5.12731       -2.66111       -0.26234
H          3.69610       -3.73406       -0.00005
H         -3.93320       -2.45563        0.95521
C         -2.21252       -3.40177        1.73319
H         -2.91656       -4.11620        2.17901
H         -1.55554       -3.03454        2.54039
H         -1.57793       -3.94749        1.00962
