33
Benzothiophene_H9_Int2_Sub17.log	Energy: -1021464.3553636
C         -0.60063       -0.80784        0.88056
C          0.77508       -0.67254        0.62464
C         -0.98381       -1.86248        1.71115
C          1.74143       -1.56143        1.16305
S          1.51212        0.54639       -0.37621
C         -0.03917       -2.74415        2.26884
H         -2.04338       -2.00886        1.93868
C          1.31239       -2.60559        2.00073
C          3.06589       -1.22617        0.73042
C          3.08190       -0.14117       -0.09169
H         -0.38331       -3.55132        2.91989
H          2.04253       -3.29638        2.42834
H          3.96577       -1.76964        1.01890
C          4.29421        0.46682       -0.71949
O         -3.01990       -0.99955       -0.74348
C         -2.64072       -1.95962       -1.41400
O         -1.39647       -2.33747       -1.50246
C         -3.59963       -2.79232       -2.19235
H         -4.60127       -2.35306       -2.15015
H         -3.25439       -2.87303       -3.23277
H         -3.61262       -3.80967       -1.77354
H         -0.85631       -1.80813       -0.86858
Pd        -1.88391        0.47737        0.14809
O         -2.84706        2.41882       -0.30064
C         -1.91109        2.93070        0.35571
O         -1.01733        2.16326        0.86011
C         -1.80531        4.40290        0.58780
H         -2.52006        4.94081       -0.04580
H         -2.02048        4.61461        1.64598
H         -0.77839        4.73831        0.38772
F          5.39710       -0.19016       -0.35671
F          4.44696        1.74608       -0.36681
F          4.22603        0.43875       -2.05446
