34
Benzo13dioxol_H8_deriv1_Int2_Sub16.log	Energy: -990848.1070446
C          0.15422        0.05881       -0.14422
C          0.82037       -0.91393        0.58393
C          0.98697        0.88037       -0.93441
C          2.20795       -1.07986        0.56768
O          0.29115       -1.80177        1.47381
C          2.36736        0.71864       -0.96486
H          0.55485        1.66495       -1.55878
C          3.03783       -0.27613       -0.20880
O          2.54549       -2.07099        1.44996
C          1.32202       -2.72097        1.74059
Cl         3.32862        1.75418       -1.96475
O          4.37244       -0.33398       -0.29154
H          1.30256       -3.01052        2.80063
H          1.20879       -3.60996        1.08653
O         -1.86593        2.13905        0.28169
C         -1.21050        2.72951        1.14143
O         -0.19571        2.20391        1.76426
C         -1.53007        4.13081        1.53379
H         -2.47369        4.44509        1.07657
H         -1.58207        4.20536        2.62886
H         -0.71256        4.78753        1.19979
H          0.01102        1.33043        1.33975
Pd        -1.80807        0.13662       -0.21085
O         -3.89272       -0.50625       -0.50608
C         -3.41463       -1.63565       -0.76811
O         -2.14704       -1.79721       -0.71843
C         -4.27673       -2.79157       -1.16283
H         -4.21499       -2.92356       -2.25390
H         -3.90988       -3.71441       -0.69418
H         -5.31974       -2.59937       -0.88444
C          5.05344       -1.45272        0.22714
H          4.95904       -1.51889        1.32136
H          4.68221       -2.39056       -0.21702
H          6.10842       -1.31741       -0.04228
