35
Benzoisoxazole_H8_deriv1_Int2_Sub30.log	Energy: -666785.6622354
C          0.52486        0.22869       -0.09123
C          1.46412       -0.57680       -0.76914
C          1.02827        1.33123        0.59394
C          2.82698       -0.25908       -0.72058
C          1.45576       -1.75671       -1.58224
C          2.41211        1.64430        0.63477
H          0.33197        1.99869        1.11033
C          3.33443        0.83857       -0.02697
O          3.52447       -1.16570       -1.42440
H          0.60676       -2.35781       -1.90739
N          2.65667       -2.09066       -1.95573
C          2.86150        2.88907        1.35265
H          4.40446        1.05203       -0.00902
O         -1.04330       -2.15691        0.26648
C         -0.34690       -2.61082        1.17603
O          0.37452       -1.87112        1.97079
C         -0.24746       -4.07502        1.42072
H         -0.21005       -4.28226        2.49786
H         -1.08475       -4.59505        0.94376
H          0.69822       -4.42795        0.97911
H          0.36423       -0.94170        1.63807
Pd        -1.39016       -0.15004       -0.09444
O         -3.57972        0.19275       -0.22703
C         -3.28632        1.39700       -0.40417
O         -2.05277        1.74363       -0.39319
C         -4.32539        2.44154       -0.65773
H         -5.30949        2.08562       -0.33037
H         -4.05678        3.37671       -0.14893
H         -4.36173        2.64777       -1.73846
H          3.92463        2.79137        1.62383
H          2.30443        2.98222        2.29949
C          2.65594        4.14897        0.51517
H          2.98078        5.04656        1.06315
H          1.59606        4.27827        0.24753
H          3.22869        4.09510       -0.42315
