30
Benzene_H10_Int2_Sub12.log	Energy: -1113768.0640757
C         -0.86406        0.45488       -0.76231
C         -1.08869        1.66236       -0.07273
C         -1.73032        0.12735       -1.81475
C         -2.15353        2.49499       -0.44877
C         -0.23248        2.18051        1.04418
C         -2.77842        0.96722       -2.18983
H         -1.57997       -0.80854       -2.35986
C         -2.99543        2.15878       -1.50225
H         -2.31819        3.42893        0.09700
H         -3.42854        0.68555       -3.02236
H         -3.81676        2.82245       -1.78071
O         -0.92839       -2.25854       -0.01334
C         -1.86302       -2.22881        0.78347
O         -2.04293       -1.28970        1.66867
C         -2.91114       -3.28801        0.78962
H         -2.58344       -4.14398        0.19082
H         -3.14220       -3.59038        1.81954
H         -3.82954       -2.86537        0.35328
H         -1.33404       -0.60865        1.61150
Pd         0.54752       -0.84805       -0.36227
O          2.49492       -1.85145       -0.15144
C          3.00108       -0.77182       -0.54312
O          2.23263        0.20858       -0.82151
C          4.47785       -0.59690       -0.70296
H          4.79871        0.31512       -0.18040
H          5.01098       -1.47200       -0.31344
H          4.71231       -0.46362       -1.76952
Cl         0.11668        0.93781        2.31148
Cl         1.28705        2.90373        0.48182
H         -0.75958        2.97012        1.59013
