32
Benzoisoxazole_H11_deriv1_Int2_Sub14.log	Energy: -930457.5313395
C         -0.37052       -0.15470       -0.10222
C         -1.31613        0.80871       -0.47881
C         -0.92741       -1.38248        0.25843
C         -2.70022        0.58956       -0.47905
O         -1.07804        2.08204       -0.86482
C         -2.31707       -1.61340        0.25524
H         -0.26890       -2.20855        0.53535
C         -3.25512       -0.64929       -0.10947
C         -3.21874        1.85879       -0.89688
N         -2.26747        2.71815       -1.11244
Cl        -2.87698       -3.18949        0.73078
C         -4.72650       -0.91001       -0.10616
H         -4.25330        2.16987       -1.04186
O          1.58462        2.04876       -0.02363
C          0.98627        2.70301        0.82933
O          0.31250        2.15366        1.80557
C          0.95099        4.18639        0.79285
H          0.92390        4.60492        1.80629
H          1.80258        4.56886        0.22033
H          0.01883        4.46609        0.27526
H          0.29199        1.18187        1.65523
Pd         1.59284        0.00124       -0.12958
O          3.70079       -0.63327       -0.21071
C          3.26022       -1.80420       -0.26699
O          1.99137       -1.98357       -0.22743
C          4.15648       -2.99030       -0.40775
H          3.77064       -3.83009        0.18502
H          4.16580       -3.30183       -1.46357
H          5.17803       -2.73186       -0.10451
H         -4.97812       -1.73778       -0.78750
H         -5.29577       -0.02329       -0.41352
H         -5.06862       -1.21471        0.89513
