29
Benzene_H10_Int2_Sub6.log	Energy: -560223.0707004
C         -0.87135        0.10203        0.44533
C         -1.70774       -0.79946       -0.22004
C         -1.43801        1.05181        1.30881
C         -3.10333       -0.74629       -0.04713
H         -1.28159       -1.57045       -0.86579
C         -2.82036        1.09667        1.49539
H         -0.79789        1.75640        1.84683
C         -3.65376        0.21202        0.81996
C         -3.94903       -1.66465       -0.74304
H         -3.25201        1.83315        2.17806
H         -4.73574        0.24886        0.95876
O          1.30816        2.00063        0.16965
C          0.73418        2.75537       -0.61528
O         -0.24175        2.37754       -1.39433
C          1.10579        4.19223       -0.73391
H          2.01227        4.39609       -0.15521
H          1.25158        4.45085       -1.79191
H          0.27283        4.80616       -0.35923
H         -0.49201        1.45356       -1.15406
Pd         1.06409       -0.05659        0.20360
O          3.05811       -1.02027       -0.03871
C          2.43168       -2.10397       -0.00458
O          1.15803       -2.08326        0.12395
C          3.13035       -3.42118       -0.12692
H          3.52291       -3.52209       -1.14986
H          3.98918       -3.44410        0.55788
H          2.44557       -4.25043        0.08599
C         -4.66584       -2.44389       -1.33571
H         -5.29897       -3.13627       -1.85867
