42
Benzothiophene_H9_deriv1_Int2_Sub5.log	Energy: -908669.7480270
C         -0.53407       -0.22319       -0.25474
C         -1.42351        0.64873       -0.89815
C         -0.95414       -1.52831        0.05432
C         -2.72806        0.25695       -1.26414
S         -1.11304        2.30493       -1.33780
C         -2.27250       -1.94339       -0.31792
C          0.05519       -2.44646        0.73532
C         -3.12441       -1.05500       -0.96408
C         -3.44761        1.32476       -1.90069
C         -2.70801        2.46338       -1.99799
C         -2.80492       -3.32009       -0.02129
H         -4.12870       -1.38618       -1.24174
H         -4.47190        1.23603       -2.26572
H         -3.01220        3.41287       -2.43802
O          0.64407        1.65405        1.65810
C         -0.30879        1.58165        2.43340
O         -1.24658        0.68189        2.36401
C         -0.47636        2.56937        3.53742
H          0.45306        3.12812        3.68815
H         -1.28134        3.26642        3.25731
H         -0.78662        2.05871        4.45864
H         -1.12512        0.13156        1.54451
Pd         1.27702        0.44256        0.11407
O          3.48059        0.71775       -0.11435
C          3.38968       -0.10473       -1.05272
O          2.24455       -0.60286       -1.33906
C          4.57274       -0.52169       -1.86801
H          5.49698       -0.13016       -1.42745
H          4.61043       -1.61795       -1.93494
H          4.45800       -0.13441       -2.89143
H         -3.08509       -3.42653        1.03842
H         -2.07795       -4.11179       -0.24535
H         -3.70639       -3.51533       -0.61855
H          0.88057       -1.77330        1.02790
C         -0.42007       -3.10500        2.03071
H          0.44537       -3.51584        2.57361
H         -0.91358       -2.37688        2.69383
H         -1.11772       -3.93644        1.86315
C          0.67253       -3.44152       -0.24870
H          1.14031       -2.90323       -1.08496
H          1.45070       -4.03907        0.25277
H         -0.07042       -4.14267       -0.65847
