48
Benzoisoxazole_H8_deriv1_Int2_Sub27.log	Energy: -789285.8921197
C         -0.63967       -0.43126       -0.07232
C         -0.87000       -1.64992       -0.74560
C          0.56053       -0.31999        0.62340
C          0.07999       -2.67637       -0.68302
C         -1.89171       -2.23026       -1.56553
C          1.51978       -1.36564        0.67490
H          0.79025        0.61793        1.13739
C          1.28063       -2.56909        0.01801
O         -0.35563       -3.73426       -1.38649
H         -2.83136       -1.79185       -1.90129
N         -1.58400       -3.44090       -1.93045
C          2.81154       -1.13124        1.40775
H          1.99897       -3.38987        0.04128
O         -3.49020       -0.23508        0.26302
C         -3.54932       -1.05844        1.17784
O         -2.55509       -1.32011        1.97913
C         -4.77870       -1.86012        1.42220
H         -4.94736       -1.98463        2.49954
H         -5.63930       -1.38895        0.93607
H         -4.62082       -2.86144        0.99058
H         -1.74769       -0.85875        1.64729
Pd        -1.91083        1.04934       -0.10088
O         -2.68455        3.12540       -0.26358
C         -1.48973        3.45736       -0.43578
O         -0.58322        2.55217       -0.40773
C         -1.08600        4.87196       -0.70259
H         -1.88069        5.55936       -0.38914
H         -0.14302        5.10166       -0.18917
H         -0.91577        4.99226       -1.78351
H          3.34106       -2.08911        1.54224
H          2.59226       -0.74831        2.41900
C          3.74342       -0.13875        0.70189
H          3.19108        0.81307        0.58047
C          4.14862       -0.61341       -0.69295
H          3.25129       -0.77609       -1.31112
H          4.64567       -1.59805       -0.60087
C          5.09287        0.36835       -1.37762
H          5.39079       -0.01812       -2.36569
H          4.55326        1.31412       -1.56579
C          6.32257        0.65396       -0.52277
H          6.97178        1.39595       -1.01539
H          6.92204       -0.27012       -0.42984
C          5.92636        1.13407        0.86912
H          5.42593        2.11574        0.78489
H          6.82127        1.29559        1.49183
C          4.98127        0.15056        1.55046
H          5.51434       -0.80093        1.73577
H          4.67707        0.53171        2.53997
