37
Benzothiophene_H9_deriv1_Int2_Sub32.log	Energy: -906532.3913316
C          0.23231       -0.25662       -0.39608
C          0.48155       -1.45700        0.28669
C          1.28173        0.27603       -1.14709
C          1.74681       -2.10248        0.24334
S         -0.63764       -2.32803        1.29822
C          2.54074       -0.35026       -1.22201
H          1.13486        1.21977       -1.68197
C          2.77291       -1.52900       -0.52179
C          1.75923       -3.29299        1.04761
C          0.56569       -3.51979        1.66021
C          3.66002        0.26740       -2.02788
H          3.76219       -1.99211       -0.55527
H          2.62851       -3.94333        1.15395
H          0.31076       -4.35155        2.31691
O         -0.63581        2.34366        0.54374
C          0.25990        2.46763        1.37771
O          0.99301        1.48278        1.81736
C          0.59761        3.79664        1.96167
H         -0.15067        4.53922        1.66687
H          0.65930        3.71613        3.05577
H          1.59141        4.10089        1.59954
H          0.78762        0.66767        1.29821
Pd        -1.49940        0.63642       -0.24506
O         -3.69181        0.97345       -0.36743
C         -3.74765       -0.18755       -0.83339
O         -2.66469       -0.85805       -0.96582
C         -5.03518       -0.81723       -1.25982
H         -5.88520       -0.21327       -0.92149
H         -5.05113       -0.89074       -2.35765
H         -5.10056       -1.83889       -0.86108
H          3.34664        1.26907       -2.38672
H          3.86485       -0.34763       -2.91891
O          4.87033        0.34219       -1.32823
C          4.84372        1.24892       -0.26731
H          4.65375        2.28326       -0.61932
H          4.06987        0.99777        0.48313
H          5.82786        1.22258        0.22071
