41
Benzoisoxazole_H9_deriv1_Int2_Sub2.log	Energy: -1004403.9274746
C          0.01373       -0.12280       -0.18359
C          0.54594       -1.20903       -0.86828
C          0.90732        0.83945        0.35934
C          1.93905       -1.32503       -0.98198
Cl        -0.45031       -2.43653       -1.58488
C          2.29753        0.77441        0.28019
H          0.45650        1.69970        0.85586
C          2.76828       -0.35454       -0.41368
C          2.86737       -2.23970       -1.57041
C          3.23835        1.81940        0.86619
O          4.05144       -0.69078       -0.65431
H          2.66623       -3.15408       -2.12719
N          4.09469       -1.85955       -1.37174
O         -2.42176       -1.54853        0.80184
C         -1.79482       -2.25424        1.58911
O         -0.57909       -1.99649        1.98470
C         -2.38029       -3.50613        2.14269
H         -3.46963       -3.49280        2.03214
H         -1.96969       -4.35170        1.56856
H         -2.08575       -3.63824        3.19161
H         -0.23384       -1.22846        1.46773
Pd        -1.90955        0.26462       -0.03695
O         -3.78269        1.42286       -0.18871
C         -3.07377        2.34027       -0.66293
O         -1.81092        2.15240       -0.77089
C         -3.65456        3.63426       -1.13347
H         -3.73704        3.60575       -2.23082
H         -4.65324        3.78014       -0.70492
H         -2.98886        4.46702       -0.87076
C          2.46762        2.94210        1.55924
H          3.17855        3.67644        1.96668
H          1.80207        3.47363        0.86223
H          1.86124        2.56677        2.39790
C          4.16050        1.14400        1.89302
H          4.76075        0.34594        1.43440
H          4.85204        1.88523        2.32350
H          3.57519        0.70627        2.71648
C          4.07831        2.42572       -0.26891
H          4.76697        3.18375        0.13624
H          4.67850        1.66096       -0.78104
H          3.43233        2.91435       -1.01424
