30
Benzene_H10_Int2_Sub54.log	Energy: -599372.2653291
C         -0.55778        1.02202        0.05362
C         -0.43476        2.03812        1.01420
C         -1.67888        1.02132       -0.79996
C         -1.41790        3.01794        1.15168
H          0.45360        2.07055        1.65042
C         -2.65125        2.01987       -0.65542
C         -1.89850       -0.04337       -1.83241
C         -2.53302        3.00891        0.31555
H         -1.30408        3.79770        1.90920
H         -3.51693        2.01627       -1.32464
H         -3.30336        3.77716        0.41324
O         -0.35714       -1.90854        0.03507
C         -1.33573       -2.08290        0.76279
O         -1.78840       -1.18542        1.59237
C         -2.10201       -3.35630        0.73118
H         -1.45979       -4.17370        0.38569
H         -2.54065       -3.57489        1.71222
H         -2.91790       -3.21251        0.00581
H         -1.32103       -0.33425        1.42588
Pd         0.90572       -0.28230       -0.03612
O          2.99916       -1.04382       -0.13124
C          3.33472        0.16171       -0.14354
O          2.42647        1.06347       -0.08782
C          4.76443        0.58952       -0.24835
H          4.95308        1.44532        0.41350
H          5.43058       -0.24682       -0.00556
H          4.96131        0.91797       -1.28035
F         -2.77342       -1.01385       -1.35152
H         -2.35800        0.38206       -2.73862
H         -0.95611       -0.54104       -2.10442
