33
Benzofuran_H9_Int2_Sub9.log	Energy: -818838.3512902
C         -0.25259        0.16747       -0.22733
C         -0.71614        1.35167       -0.81044
C         -1.25261       -0.71354        0.18998
C         -2.07647        1.67647       -0.97351
O          0.05497        2.36223       -1.28562
C         -2.62239       -0.41132        0.04603
H         -0.96517       -1.67779        0.61653
C         -3.05284        0.77427       -0.53365
C         -2.09015        2.97216       -1.60126
C         -0.78729        3.31740       -1.75623
C         -3.61916       -1.41222        0.55769
H         -4.11667        0.98869       -0.63973
H         -2.95600        3.56018       -1.89663
H         -0.30811        4.19468       -2.18438
O          2.27316        1.51533        0.46779
C          1.76225        2.25130        1.30945
O          0.64738        1.97734        1.93006
C          2.37764        3.55518        1.67865
H          3.41573        3.59206        1.33270
H          1.80049        4.35465        1.18849
H          2.31301        3.71470        2.76287
H          0.25563        1.16262        1.53496
Pd         1.63277       -0.36195       -0.08045
O          3.41084       -1.66580       -0.12648
C          2.62037       -2.58434       -0.44485
O          1.37107       -2.31558       -0.53996
C          3.08657       -3.97154       -0.74427
H          2.37229       -4.70515       -0.34780
H          3.12785       -4.10196       -1.83656
H          4.08789       -4.13351       -0.32786
F         -4.87682       -1.07123        0.25984
F         -3.54836       -1.53534        1.89036
F         -3.40338       -2.62956        0.04870
