41
Benzoisoxazole_H11_deriv1_Int2_Sub4.log	Energy: -1004393.5457007
C          0.41801       -0.21668       -0.24012
C          0.65317       -1.30874       -1.08789
C          1.53412        0.56982        0.12424
C          1.88796       -1.65753       -1.62530
O         -0.27111       -2.20615       -1.49440
C          2.79660        0.22184       -0.47446
C          1.43227        1.74062        1.12901
C          2.98980       -0.85600       -1.32446
C          1.59020       -2.83423       -2.38365
N          0.32960       -3.14329       -2.29311
Cl         4.26170        1.15106       -0.22594
H          3.98190       -1.05149       -1.73143
H          2.25141       -3.46028       -2.98289
O         -1.82140       -1.49744        1.27788
C         -1.05645       -2.13738        1.99612
O          0.22767       -1.92010        2.06738
C         -1.54870       -3.25320        2.85159
H         -1.08674       -3.19995        3.84637
H         -2.64093       -3.22144        2.91937
H         -1.23829       -4.20415        2.39159
H          0.47626       -1.22947        1.40098
Pd        -1.52189        0.10393        0.01227
O         -3.50936        0.95662       -0.33674
C         -2.94281        1.78165       -1.09267
O         -1.67105        1.71914       -1.22682
C         -3.70417        2.81459       -1.85715
H         -3.15484        3.76544       -1.85616
H         -3.79664        2.48333       -2.90278
H         -4.70693        2.94045       -1.43182
C          1.73022        3.06701        0.40854
H          1.65254        3.90050        1.12446
H          2.73014        3.09774       -0.03846
H          0.98730        3.22962       -0.38702
C          0.04435        1.90527        1.75468
H         -0.29793        0.99753        2.27429
H          0.10141        2.70445        2.50965
H         -0.71188        2.20587        1.01760
C          2.38221        1.49252        2.31651
H          2.31341        2.33673        3.01999
H          2.07968        0.58240        2.85904
H          3.43212        1.38320        2.02710
