33
Benzo13dioxol_H9_Int2_Sub6.log	Energy: -655366.3378841
C          0.53200        0.00583       -0.36742
C          1.31523       -0.66689        0.61032
C          1.12532        0.57164       -1.50331
C          2.67454       -0.71874        0.34670
C          0.73576       -1.29347        1.84249
C          2.50988        0.50111       -1.73890
H          0.49653        1.08146       -2.23815
C          3.25946       -0.15866       -0.78829
O          3.65509       -1.26304        1.12390
H          2.97019        0.94306       -2.62346
O          4.60589       -0.34571       -0.73596
C          4.82329       -1.24911        0.33001
H          5.67989       -0.91228        0.93336
H          5.01179       -2.26413       -0.07502
O         -1.51732        2.09992       -0.13710
C         -0.76459        2.90706        0.40792
O          0.40887        2.60130        0.88243
C         -1.14581        4.33992        0.56347
H         -2.18137        4.49222        0.24307
H         -1.01489        4.64316        1.61181
H         -0.46680        4.95901       -0.04173
H          0.62071        1.66571        0.62212
Pd        -1.42353        0.03504       -0.19175
O         -3.51825       -0.73535       -0.05294
C         -3.00175       -1.87342       -0.10300
O         -1.72752       -1.98067       -0.18324
C         -3.82394       -3.12391       -0.09269
H         -4.86138       -2.89584        0.17851
H         -3.79968       -3.57551       -1.09596
H         -3.39056       -3.85247        0.60616
H         -0.03830       -2.02442        1.56526
H          0.25132       -0.53733        2.48104
H          1.51422       -1.79423        2.43300
