39
Benzofuran_H9_deriv1_Int2_Sub13.log	Energy: -969712.7312268
C          0.05194       -0.15306       -0.04984
C         -0.82803        0.73928       -0.66730
C         -0.56319       -1.24187        0.56787
C         -2.22839        0.59671       -0.67745
O         -0.46876        1.87579       -1.32015
C         -1.96271       -1.39987        0.56992
H          0.04482       -2.01233        1.04547
C         -2.84480       -0.50579       -0.04294
C         -2.71180        1.74588       -1.40740
C         -1.61077        2.45781       -1.75636
Cl        -2.56967       -2.81355        1.39546
C         -4.34472       -0.69120       -0.03286
H         -3.73782        2.01078       -1.64592
H         -1.48585        3.38272       -2.31451
O          2.03181        1.99557        0.27220
C          1.36766        2.60499        1.10813
O          0.44360        2.05261        1.84476
C          1.55567        4.06452        1.33416
H          2.50522        4.39304        0.89922
H          0.72577        4.59448        0.84127
H          1.50770        4.29454        2.40648
H          0.30062        1.12542        1.53472
Pd         2.01073       -0.02867       -0.10057
O          4.11311       -0.67924       -0.28821
C          3.64789       -1.82907       -0.46479
O          2.37837       -1.99416       -0.42623
C          4.52175       -3.00798       -0.74743
H          4.13249       -3.89943       -0.23814
H          4.50602       -3.20760       -1.82989
H          5.55297       -2.79851       -0.43909
H         -4.53722       -1.62169        0.51993
C         -5.05203        0.43211        0.72630
H         -6.13396        0.23485        0.78154
H         -4.66865        0.51270        1.75437
H         -4.91592        1.41135        0.24327
C         -4.90385       -0.88705       -1.44248
H         -4.41288       -1.73369       -1.94465
H         -5.98411       -1.09622       -1.39984
H         -4.76102        0.00176       -2.07510
