33
Benzothiophene_H9_deriv1_Int2_Sub18.log	Energy: -1123042.5791907
C         -0.14864        0.36134        0.54246
C         -1.14496       -0.42460       -0.06158
C         -0.57299        1.36597        1.41013
C         -2.51799       -0.19956        0.19063
S         -0.90152       -1.73334       -1.18596
C         -1.93887        1.60077        1.69541
H          0.17496        2.00086        1.89570
C         -2.90426        0.81677        1.07710
C         -3.32965       -1.11448       -0.56507
C         -2.60815       -1.97334       -1.33717
C         -2.31905        2.68693        2.65962
H         -3.96752        0.98036        1.26831
Cl        -5.05026       -1.10284       -0.48368
H         -3.00369       -2.75248       -1.98656
O          2.08464        1.91386       -0.51980
C          1.39898        2.60193       -1.27552
O          0.17389        2.31455       -1.61342
C          1.92882        3.85861       -1.87599
H          2.98835        3.97756       -1.62834
H          1.78517        3.83329       -2.96545
H          1.35032        4.71166       -1.49107
H         -0.13331        1.53865       -1.08504
Pd         1.74258        0.00365        0.18907
O          3.66242       -1.10359        0.07761
C          3.02153       -2.07316        0.54403
O          1.77335       -1.93070        0.79358
C          3.66422       -3.39053        0.83818
H          4.67291       -3.42643        0.41043
H          3.72288       -3.52440        1.92882
H          3.04355       -4.20505        0.44015
H         -1.88871        3.65597        2.36131
H         -1.94376        2.46568        3.67172
H         -3.40949        2.80524        2.72358
