35
Benzo13dioxol_H8_deriv1_Int2_Sub15.log	Energy: -978394.7916288
C          0.14040        0.05527       -0.15486
C          0.80899       -0.92180        0.57160
C          0.97348        0.83425       -0.98522
C          2.18503       -1.12542        0.51274
O          0.28014       -1.79163        1.47869
C          2.34766        0.63651       -1.03911
H          0.54689        1.61990       -1.61220
C          3.03400       -0.36006       -0.28942
O          2.52396       -2.13517        1.37718
C          1.29240       -2.74073        1.71829
Cl         3.30555        1.65722       -2.08188
N          4.38708       -0.53069       -0.39595
H          1.29950       -3.02059        2.78151
H          1.12601       -3.63173        1.07836
O         -1.87318        2.14453        0.33959
C         -1.17316        2.73635        1.16267
O         -0.10349        2.22891        1.70080
C         -1.50400        4.12027        1.60685
H         -2.47059        4.42805        1.19550
H         -1.51849        4.15976        2.70514
H         -0.71212        4.80399        1.26615
H          0.09019        1.36160        1.24916
Pd        -1.82332        0.15177       -0.19317
O         -3.91786       -0.48033       -0.46747
C         -3.44625       -1.60633       -0.75391
O         -2.17878       -1.77242       -0.72776
C         -4.31747       -2.75539       -1.15032
H         -4.25427       -2.88942       -2.24099
H         -3.95830       -3.68079       -0.68048
H         -5.35923       -2.55545       -0.87280
H          4.83535        0.20232       -0.93202
C          5.19570       -1.16522        0.61252
H          6.22303       -1.25491        0.23364
H          4.82649       -2.17472        0.83270
H          5.22739       -0.60453        1.56667
