32
Benzoisoxazole_H9_Int2_Sub17.log	Energy: -828876.3444127
C         -0.03327        0.27132       -0.30448
C         -0.58662        1.39913       -0.90768
C         -0.87947       -0.73721        0.21927
C         -1.98497        1.50482       -0.96483
H          0.04582        2.18041       -1.33623
C         -2.26487       -0.64102        0.18297
H         -0.43086       -1.63555        0.64845
C         -2.79493        0.50413       -0.42120
C         -2.95293        2.43631       -1.46550
C         -3.15700       -1.70999        0.74921
O         -4.08494        0.82516       -0.58540
H         -2.79766        3.38322       -1.98226
N         -4.16689        2.03086       -1.23807
O          2.32183        1.95984       -0.01189
C          1.92902        2.62376        0.94837
O          1.05398        2.18307        1.81037
C          2.42088        4.00429        1.20433
H          3.19475        4.26982        0.47732
H          1.57590        4.70564        1.13785
H          2.81537        4.06724        2.22857
H          0.72417        1.31033        1.49114
Pd         1.89948       -0.05267       -0.24904
O          3.81036       -1.17555       -0.28702
C          3.10102       -2.20132       -0.39369
O          1.82487       -2.07035       -0.40115
C          3.68556       -3.56809       -0.54005
H          3.63017       -3.86435       -1.59878
H          4.73521       -3.56835       -0.22335
H          3.10027       -4.29450        0.03918
F         -2.44879       -2.71357        1.26979
F         -3.95739       -2.22227       -0.18714
F         -3.93877       -1.22430        1.71743
