34
Benzoisoxazole_H9_Int2_Sub31.log	Energy: -676845.5560721
C         -0.12060       -0.58321        0.18245
C         -1.26653       -0.03752       -0.39733
C         -0.21654       -1.74973        0.98122
C         -2.50344       -0.65763       -0.15591
H         -1.19561        0.85113       -1.02619
C         -1.43222       -2.36947        1.23781
H          0.70037       -2.18280        1.38881
C         -2.56369       -1.79714        0.65541
C         -3.89153       -0.46697       -0.51834
H         -1.50732       -3.26642        1.85436
O         -3.82530       -2.22260        0.76446
N         -4.43749        0.47806       -1.33525
N         -4.64941       -1.38136        0.03820
O          0.96561        2.10529       -0.12461
C          0.36206        2.60542        0.82508
O         -0.10422        1.91201        1.82612
C          0.09789        4.06889        0.90165
H          0.62584        4.59044        0.09703
H         -0.98598        4.23981        0.81651
H          0.41086        4.44984        1.88380
H          0.00371        0.95241        1.61186
Pd         1.66254        0.15355       -0.16726
O          3.85563        0.19248       -0.56315
C          3.79931       -1.05341       -0.46175
O          2.67352       -1.60661       -0.19928
C          4.99743       -1.92504       -0.66509
H          4.95120       -2.35882       -1.67577
H          5.91693       -1.33495       -0.57238
H          4.98982       -2.75512        0.05368
H         -5.44918        0.47795       -1.33684
C         -3.77154        1.70186       -1.67988
H         -4.45675        2.32266       -2.27190
H         -2.88581        1.51660       -2.30841
H         -3.45207        2.29603       -0.80179
