30
Benzoicacid_H10_Int2_Sub10.log	Energy: -919063.1824047
C         -0.30886       -0.82287        0.34440
C         -1.53506       -0.52765       -0.28273
C         -0.24981       -1.87887        1.26333
C         -1.64807        0.61898       -1.23823
C         -2.66878       -1.29184        0.02882
C         -1.38906       -2.62449        1.56308
H          0.70583       -2.13092        1.72906
O         -0.85916        0.47431       -2.30125
O         -2.34795        1.58557       -1.06673
C         -2.60254       -2.33759        0.94637
Cl        -4.18093       -0.98354       -0.75965
H         -1.32993       -3.44727        2.27992
H         -0.94509        1.28632       -2.82606
H         -3.50072       -2.91867        1.15913
O          0.42229        1.99902        0.11322
C         -0.34431        2.38520        0.99869
O         -0.70591        1.63891        2.00547
C         -0.95986        3.73481        0.95366
H         -1.20530        4.09367        1.95992
H         -0.30129        4.43172        0.42371
H         -1.89214        3.61933        0.37647
H         -0.37099        0.72633        1.85535
Pd         1.35484        0.15951        0.00207
O          3.50640        0.50593       -0.38134
C          3.62270       -0.74079       -0.34533
O          2.58404       -1.45330       -0.11284
C          4.92755       -1.42622       -0.59412
H          4.93993       -1.79482       -1.63134
H          5.75813       -0.72371       -0.45645
H          5.03336       -2.29452        0.06952
