33
Benzothiophene_H9_Int2_Sub6.log	Energy: -834722.1925431
C         -0.47564       -0.70804        0.35206
C         -1.59391       -0.59790       -0.48909
C         -0.55332       -1.59444        1.43819
C         -2.78708       -1.33329       -0.28421
S         -1.73003        0.43911       -1.88360
C         -1.74436       -2.32813        1.64580
C          0.61694       -1.77957        2.36348
C         -2.84264       -2.21012        0.81168
C         -3.77979       -1.02792       -1.27689
C         -3.34990       -0.10470       -2.17850
H         -1.78913       -3.01253        2.49728
H         -3.74823       -2.79080        1.00243
H         -4.76957       -1.48595       -1.30581
H         -3.90099        0.29516       -3.02942
O          0.24868        2.12344        0.23852
C         -0.65617        2.46565        0.99955
O         -1.32341        1.64557        1.75862
C         -1.08637        3.88929        1.08877
H         -0.30455        4.54498        0.69131
H         -1.99774        4.00515        0.48126
H         -1.33889        4.14988        2.12455
H         -1.07100        0.71222        1.53458
Pd         1.16059        0.29749       -0.04855
O          3.28015        0.68333       -0.61315
C          3.39205       -0.56141       -0.67493
O          2.37565       -1.29337       -0.40433
C          4.66826       -1.22938       -1.07790
H          5.49922       -0.51504       -1.04358
H          4.86575       -2.09009       -0.42472
H          4.56049       -1.61111       -2.10456
H          0.89449       -0.83330        2.85601
H          1.50124       -2.11321        1.79922
H          0.39515       -2.51770        3.14686
