30
Benzene_H10_Int2_Sub52.log	Energy: -723874.3584722
C          0.46966        0.92219       -0.44365
C          0.34467        1.79130       -1.53969
C          1.63457        1.02228        0.34295
C          1.34422        2.71079       -1.85870
H         -0.56588        1.75959       -2.14369
C          2.62796        1.95514        0.02821
C          1.88095        0.11578        1.52156
C          2.49056        2.79388       -1.07312
H          1.21732        3.37171       -2.71984
H          3.51387        2.02445        0.66188
H          3.27463        3.51623       -1.30960
O          0.00826       -2.00593       -0.24838
C          0.92575       -2.29758       -1.01287
O          1.45245       -1.46385       -1.86715
C          1.54223       -3.65148       -0.99828
H          0.84522       -4.37657       -0.56481
H          1.85646       -3.94808       -2.00664
H          2.43958       -3.59549       -0.36192
H          1.07586       -0.56631       -1.71437
Pd        -1.06625       -0.25399       -0.09549
O         -3.16132       -0.82983        0.29314
C         -3.40730        0.39886        0.29663
O         -2.45236        1.22223        0.07512
C         -4.77317        0.93546        0.58129
H         -5.52806        0.15622        0.42186
H         -4.81215        1.25922        1.63274
H         -4.97552        1.81330       -0.04634
F          2.78400        0.62770        2.36238
F          2.37346       -1.07941        1.12618
F          0.78136       -0.13624        2.22872
