29
Benzooxazole_H10_Int2_Sub18.log	Energy: -905828.6677942
C         -0.31565       -0.24553       -0.07939
C         -1.23797        0.60475       -0.72977
C         -0.74919       -1.38685        0.60732
C         -2.60630        0.35021       -0.70543
H         -0.88772        1.48078       -1.27917
C         -2.11980       -1.60418        0.61581
H         -0.04846       -2.07771        1.07843
C         -3.06129       -0.77743       -0.01311
Cl        -3.72063        1.39345       -1.50509
O         -2.81597       -2.61566        1.20048
N         -4.32535       -1.29602        0.19819
C         -4.11055       -2.35149        0.90064
H         -4.84555       -3.05844        1.28410
O          1.34688        2.13722       -0.09187
C          0.77709        2.71315        0.83569
O          0.13508        2.08494        1.78226
C          0.75993        4.19670        0.94605
H         -0.26812        4.54996        0.77316
H          1.04234        4.49727        1.96445
H          1.43632        4.63778        0.20710
H          0.10200        1.12716        1.54886
Pd         1.61230        0.08691       -0.18219
O          3.78673       -0.34508       -0.32725
C          3.45361       -1.55138       -0.31583
O          2.21089       -1.85037       -0.21549
C          4.45163       -2.65657       -0.44496
H          4.44311       -3.01971       -1.48414
H          5.45685       -2.29065       -0.20435
H          4.17390       -3.49750        0.20410
