29
Benzoisoxazole_H8_Int2_Sub2.log	Energy: -905804.5853738
C         -0.62091       -0.58076        0.01912
C         -1.70805       -0.31901       -0.84029
C         -0.84414       -1.58593        0.95960
C         -2.90737       -1.03489       -0.75043
C         -1.97765        0.58925       -1.91615
C         -2.05750       -2.30648        1.04438
Cl         0.39669       -1.97717        2.11846
C         -3.11497       -2.04644        0.18804
O         -3.77098       -0.58568       -1.67346
H         -1.32523        1.34593       -2.35213
N         -3.17796        0.42562       -2.39008
H         -2.14736       -3.07910        1.81013
H         -4.05534       -2.59497        0.24639
O          0.19219        2.19952        0.20514
C         -0.62902        2.49330        1.07474
O         -1.20547        1.62100        1.85164
C         -1.05186        3.90324        1.29794
H         -1.05375        4.12764        2.37316
H         -0.39028        4.58580        0.75506
H         -2.08489        4.01978        0.93543
H         -0.95546        0.71262        1.55847
Pd         1.07727        0.37601       -0.18042
O          3.18625        0.77895       -0.59528
C          3.30015       -0.45556       -0.79371
O          2.26410       -1.19407       -0.66494
C          4.59586       -1.08587       -1.18608
H          5.41157       -0.35726       -1.11301
H          4.79425       -1.95544       -0.54430
H          4.51822       -1.45180       -2.22079
