29
Benzoisoxazole_H11_deriv1_Int2_Sub10.log	Energy: -1194123.4739116
C         -0.18572       -0.10869       -0.09975
C         -1.07248        0.91879       -0.45463
C         -0.81275       -1.30531        0.24914
C         -2.46567        0.78901       -0.44646
O         -0.76610        2.18107       -0.82673
C         -2.21430       -1.47069        0.26213
H         -0.20150       -2.17259        0.50846
C         -3.06512       -0.42532       -0.08554
C         -2.91820        2.08646       -0.84102
N         -1.91801        2.88924       -1.05471
Cl        -2.86325       -3.00337        0.71719
Cl        -4.77587       -0.57756       -0.07786
H         -3.93943        2.44436       -0.96742
O          1.90787        1.96746       -0.06282
C          1.38055        2.66694        0.80146
O          0.70744        2.16935        1.80573
C          1.43616        4.14880        0.74863
H          1.47009        4.57786        1.75743
H          2.28978        4.47143        0.14325
H          0.50624        4.48204        0.25944
H          0.63389        1.19803        1.67505
Pd         1.78369       -0.07684       -0.13817
O          3.84262       -0.83737       -0.22015
C          3.33401       -1.98147       -0.25876
O          2.05631       -2.08220       -0.21053
C          4.15655       -3.22013       -0.38776
H          3.72473       -4.02726        0.21850
H          4.14072       -3.54569       -1.43927
H          5.19347       -3.01909       -0.09348
