30
Benzo13dioxol_H8_deriv1_Int2_Sub10.log	Energy: -1207354.9227870
C          0.16048       -0.01223       -0.13392
C          0.74895       -1.02870        0.60127
C          1.05018        0.77356       -0.90010
C          2.12464       -1.26674        0.60215
O          0.16422       -1.90104        1.46891
C          2.42421        0.54489       -0.90722
H          0.66812        1.58663       -1.52048
C          2.99831       -0.49468       -0.14241
O          2.41222       -2.28646        1.44110
C          1.15547       -2.85502        1.77936
Cl         3.44819        1.54576       -1.87316
Cl         4.68566       -0.80338       -0.10513
H          1.13293       -3.08284        2.85484
H          0.99520       -3.77290        1.18027
O         -1.70557        2.21014        0.23712
C         -1.04549        2.75595        1.12215
O         -0.11919        2.15020        1.80906
C         -1.25098        4.18812        1.47447
H         -2.13657        4.57912        0.96357
H         -1.35016        4.29071        2.56398
H         -0.35946        4.75828        1.17214
H          0.02568        1.25478        1.41425
Pd        -1.78921        0.20061       -0.22212
O         -3.90600       -0.28899       -0.53344
C         -3.51246       -1.45524       -0.77581
O         -2.26037       -1.70873       -0.70801
C         -4.45332       -2.54891       -1.16460
H         -4.36746       -2.72254       -2.24810
H         -4.17742       -3.48218       -0.65570
H         -5.48509       -2.26446       -0.92661
