34
Benzofuran_H13_deriv1_Int2_Sub24.log	Energy: -967578.3678771
C          0.07397       -0.70637       -0.36784
C         -1.35232       -0.85937       -0.13970
C          0.43282       -1.90047       -0.93537
C         -1.68697       -2.14811       -0.57692
C         -2.34619       -0.02072        0.38596
Cl         1.94725       -2.45598       -1.48469
O         -0.58340       -2.78346       -1.06475
C         -2.97662       -2.66120       -0.50563
C         -3.64632       -0.51769        0.45777
H         -2.08585        0.99251        0.68766
C         -3.95128       -1.82722        0.02082
H         -3.20905       -3.66957       -0.85113
O         -4.69738        0.18877        0.93107
H         -4.98776       -2.15822        0.10465
O          2.74241        0.00253        0.64822
C          2.76428       -0.91202        1.47396
O          1.69995       -1.53179        1.89197
C          4.04827       -1.40459        2.04337
H          4.84025       -0.66499        1.88646
H          3.92805       -1.64247        3.10812
H          4.31159       -2.33670        1.51907
H          0.93324       -1.25015        1.32412
Pd         1.09225        0.95193       -0.11794
O          1.57551        3.08950       -0.12061
C          0.43064        3.26624       -0.59989
O         -0.32164        2.24639       -0.78457
C         -0.06998        4.61866       -0.98909
H         -1.14245        4.70538       -0.77094
H          0.50137        5.39808       -0.47081
H          0.06268        4.74388       -2.07475
C         -4.47472        1.50139        1.35841
H         -3.76835        1.54367        2.20707
H         -4.08236        2.13752        0.54492
H         -5.44510        1.89717        1.68464
