35
Benzoisoxazole_H8_deriv1_Int2_Sub25.log	Energy: -853534.9270951
C         -0.06342       -0.34092       -0.08991
C          0.05651       -1.59385       -0.72547
C          1.07469        0.14179        0.55277
C          1.26669       -2.29771       -0.67928
C         -0.77453       -2.47191       -1.49653
C          2.28918       -0.58526        0.59439
H          1.04134        1.12755        1.02423
C          2.40254       -1.82604       -0.02611
O          1.13834       -3.45770       -1.34307
H         -1.80954       -2.33569       -1.80908
N         -0.13643       -3.54991       -1.84712
C          3.48689        0.02274        1.26963
H          3.33033       -2.39926       -0.01376
O         -2.85797       -0.97294        0.25392
C         -2.68750       -1.75584        1.19009
O         -1.67624       -1.68502        2.01045
C         -3.62154       -2.88593        1.43985
H         -3.76547       -3.03392        2.51777
H         -4.57468       -2.70674        0.93153
H         -3.16073       -3.80123        1.03497
H         -1.04821       -1.00146        1.67663
Pd        -1.70976        0.71046       -0.10386
O         -3.04711        2.46801       -0.24788
C         -2.00095        3.13588       -0.41693
O         -0.87153        2.53021       -0.39444
C         -2.02494        4.60758       -0.67261
H         -2.98433        5.03280       -0.35482
H         -1.18776        5.09645       -0.15718
H         -1.89785        4.77947       -1.75249
H          4.14735       -0.75160        1.68524
H          3.18533        0.68223        2.09575
C          4.33120        0.85690        0.33148
F          4.81084        0.12771       -0.67964
F          5.37735        1.37910        0.98075
F          3.63796        1.86815       -0.19351
