36
Benzothiophene_H9_deriv1_Int2_Sub14.log	Energy: -859372.9284392
C          0.46516        0.05919       -0.40933
C          1.13403       -0.88538        0.38129
C          1.24579        0.78817       -1.30516
C          2.53591       -1.09465        0.29318
S          0.40399       -1.91917        1.57783
C          2.63698        0.59767       -1.43176
H          0.76843        1.53925       -1.94195
C          3.29675       -0.34400       -0.63062
C          2.96579       -2.10263        1.22681
C          1.94177       -2.60970        1.96524
C          3.40693        1.41434       -2.42913
C          4.77810       -0.54096       -0.76062
H          3.99717       -2.43622        1.34133
H          2.00502       -3.38177        2.73183
O         -1.31210        2.25507        0.33717
C         -0.50737        2.78609        1.10185
O          0.57814        2.21205        1.53536
C         -0.71575        4.17484        1.60260
H         -1.68671        4.55441        1.26897
H         -0.65356        4.18136        2.70006
H          0.09390        4.81782        1.22662
H          0.69353        1.34428        1.07285
Pd        -1.47345        0.28669       -0.27143
O         -3.63927       -0.21374       -0.35323
C         -3.26329       -1.35315       -0.71177
O         -2.01031       -1.59162       -0.81959
C         -4.22953       -2.44802       -1.03629
H         -5.24515       -2.16031       -0.74048
H         -4.20233       -2.64087       -2.11927
H         -3.92549       -3.37466       -0.53019
H          2.74789        2.10626       -2.97114
H          3.90743        0.77551       -3.17522
H          4.19797        2.01067       -1.94520
H          5.32677        0.39485       -0.56502
H          5.05075       -0.85682       -1.78092
H          5.16020       -1.29970       -0.06719
