34
Benzothiophene_H9_Int2_Sub16.log	Energy: -881886.5129423
C         -0.54892       -0.11344        0.34511
C         -0.96854       -1.29004       -0.28681
C         -1.49430        0.60737        1.07843
C         -2.31163       -1.74761       -0.20026
S          0.00839       -2.36188       -1.25920
C         -2.82650        0.15518        1.19080
H         -1.18771        1.52964        1.57346
C         -3.23658       -1.01192        0.54834
C         -2.49916       -2.96285       -0.94519
C         -1.35700       -3.38496       -1.55257
O         -3.77517        0.80880        1.89713
H         -4.27617       -1.32941        0.64364
H         -3.45158       -3.49001       -1.01479
H         -1.23242       -4.27505       -2.16932
O          0.73003        2.17334       -0.88142
C         -0.09941        2.29623       -1.78240
O         -0.94698        1.37207       -2.13313
C         -0.20620        3.55910       -2.56756
H          0.58967        4.25239       -2.27765
H         -0.14737        3.32893       -3.64081
H         -1.19188        4.01267       -2.38574
H         -0.89015        0.60789       -1.50877
Pd         1.30069        0.49240        0.17566
O          3.51250        0.52566        0.37886
C          3.37640       -0.55464        0.99803
O          2.20170       -1.03704        1.15834
C          4.53975       -1.29834        1.57289
H          5.48230       -0.85838        1.22686
H          4.49050       -1.24846        2.67096
H          4.47958       -2.35836        1.28988
C         -3.42661        1.97161        2.59117
H         -2.63898        1.78458        3.34236
H         -3.08251        2.77246        1.91203
H         -4.33320        2.31376        3.10671
