39
Benzothiophene_H9_Int2_Sub13.log	Energy: -884021.1103593
C          0.35851        0.26193        0.19272
C          0.48361        1.53318       -0.39246
C          1.50520       -0.29797        0.75256
C          1.72283        2.22163       -0.42720
S         -0.77413        2.45509       -1.16722
C          2.75476        0.36261        0.74185
H          1.43709       -1.28970        1.20959
C          2.85211        1.61543        0.15069
C          1.60512        3.48692       -1.09591
C          0.34031        3.72550       -1.53955
C          3.97032       -0.30460        1.35093
H          3.81458        2.13414        0.12662
H          2.43590        4.18054       -1.23314
H         -0.01531        4.60820       -2.07092
O         -0.57003       -2.32625       -0.73759
C          0.19867       -2.38482       -1.69672
O          0.82841       -1.35732       -2.19229
C          0.49083       -3.67740       -2.37865
H         -0.19415       -4.45432       -2.02436
H          0.41068       -3.55018       -3.46698
H          1.53019       -3.96513       -2.15829
H          0.68461       -0.57695       -1.60351
Pd        -1.36135       -0.66796        0.21310
O         -3.51729       -1.06127        0.59370
C         -3.53533        0.07992        1.10865
O         -2.45756        0.77075        1.13199
C         -4.77086        0.66294        1.71736
H         -5.64597        0.05469        1.46044
H         -4.65195        0.69071        2.81099
H         -4.90236        1.69845        1.37464
H          4.81742        0.38783        1.20684
C          3.80141       -0.52439        2.85363
H          4.71501       -0.95542        3.29252
H          3.58369        0.42131        3.37164
H          2.97140       -1.21739        3.06459
C          4.31344       -1.60829        0.63004
H          4.44764       -1.44259       -0.44967
H          5.24176       -2.04624        1.02930
H          3.51414       -2.35611        0.75846
