41
Benzoisoxazole_H11_Int2_Sub4.log	Energy: -716081.0947511
C          0.68023        0.20516       -0.37897
C          1.39667       -0.71513       -1.15685
C          1.32201        1.44194       -0.14983
C          2.66580       -0.49857       -1.70064
O          0.99154       -1.96379       -1.47200
C          2.61414        1.66251       -0.70381
C          0.64219        2.57499        0.64006
C          3.29292        0.73063       -1.46986
C          2.94148       -1.73714       -2.36356
N          1.96111       -2.57994       -2.22072
H          3.10265        2.61786       -0.51948
H          4.28471        0.95201       -1.86884
H          3.82081       -2.03637       -2.93435
O         -0.50223       -1.49995        1.76349
C          0.56698       -1.64057        2.35308
O          1.66080       -1.00227        2.04638
C          0.70178       -2.59003        3.49411
H          1.20007       -2.09256        4.33748
H         -0.28266       -2.96818        3.78763
H          1.34347       -3.42734        3.18019
H          1.49537       -0.42737        1.25541
Pd        -1.13027       -0.38521        0.14038
O         -3.30851       -0.70023        0.04918
C         -3.28516       -0.00032       -0.98950
O         -2.16557        0.48320       -1.38213
C         -4.51206        0.27683       -1.79585
H         -4.56828        1.34810       -2.03332
H         -4.44357       -0.26891       -2.74890
H         -5.40669       -0.04748       -1.25163
C          1.60729        3.71906        0.96763
H          1.08054        4.47309        1.57153
H          2.47636        3.37380        1.54925
H          1.97318        4.22952        0.06452
C         -0.49859        3.14349       -0.21763
H         -1.23689        2.37364       -0.48019
H         -1.01182        3.95455        0.32394
H         -0.10411        3.55726       -1.15845
C          0.08454        2.06211        1.97388
H         -0.39165        2.88837        2.52372
H         -0.68046        1.28337        1.82590
H          0.88401        1.65039        2.61029
