35
Benzo13dioxol_H8_deriv1_Int2_Sub23.log	Energy: -978405.1104197
C          0.03997       -0.59847       -0.11627
C         -1.25831       -0.36662       -0.54702
C          0.32338       -1.92779        0.26869
C         -2.22763       -1.36749       -0.59173
O         -1.83258        0.80596       -0.94978
C         -0.65487       -2.91734        0.22848
H          1.33484       -2.19179        0.58131
C         -1.96626       -2.66547       -0.20492
O         -3.39514       -0.84821       -1.04404
C         -3.19955        0.56092       -1.24733
Cl        -0.24699       -4.53358        0.71843
H         -2.72381       -3.44732       -0.23538
N         -4.03206        1.37088       -0.45591
H         -3.38890        0.78377       -2.31125
O          0.31692        2.33616       -0.05359
C         -0.57914        2.49902        0.77217
O         -0.81334        1.64956        1.74121
C         -1.50029        3.66059        0.71300
H         -1.03849        4.47861        0.15003
H         -2.39970        3.31120        0.17515
H         -1.79615        3.98085        1.71960
H         -0.26090        0.84817        1.58387
Pd         1.53659        0.68656       -0.12057
O          3.61739        1.42118       -0.17390
C          3.95301        0.21511       -0.20961
O          3.03594       -0.67902       -0.17730
C          5.37980       -0.21453       -0.31721
H          5.55499       -1.10484        0.30109
H          5.58832       -0.48775       -1.36301
H          6.04634        0.60496       -0.02324
H         -4.92536        1.52914       -0.91037
C         -4.16319        1.00814        0.94222
H         -4.75995        1.77217        1.45955
H         -3.17091        0.99182        1.41452
H         -4.63550        0.02249        1.09884
