35
Benzo13dioxol_H9_Int2_Sub23.log	Energy: -690074.8892240
C         -0.29145       -0.24139        0.04500
C         -0.75935       -1.30507       -0.75014
C         -1.16866        0.55868        0.79350
C         -2.13177       -1.50909       -0.73780
H         -0.08629       -1.95823       -1.30587
C         -2.56614        0.34069        0.79153
H         -0.76403        1.36617        1.40600
C         -2.99703       -0.72102       -0.00171
O         -2.86423       -2.43464       -1.42334
N         -3.47025        1.11101        1.47766
O         -4.28948       -1.12673       -0.21334
C         -4.15977       -2.37618       -0.86301
H         -4.91399       -2.46145       -1.65909
H         -4.28039       -3.19516       -0.12322
O          1.39342        2.10672       -0.16365
C          0.74378        2.62672       -1.07102
O         -0.06204        1.97057       -1.85675
C          0.82200        4.08993       -1.34346
H          1.61742        4.54378       -0.74377
H          0.99733        4.25805       -2.41515
H         -0.14686        4.54912       -1.09527
H         -0.15884        1.04703       -1.51116
Pd         1.63855        0.07016        0.13351
O          3.82221       -0.37308        0.33370
C          3.46834       -1.56908        0.43615
O          2.22509       -1.86456        0.36360
C          4.45368       -2.67148        0.67077
H          5.46572       -2.33881        0.41094
H          4.42998       -2.94633        1.73645
H          4.17286       -3.56129        0.09179
H         -4.39483        0.71229        1.56280
C         -3.06743        2.06519        2.46738
H         -3.96058        2.52643        2.90949
H         -2.46929        2.87724        2.01994
H         -2.46653        1.62326        3.28632
