30
Benzene_H10_Int2_Sub53.log	Energy: -825452.7004907
C         -0.33071        1.09456        0.16077
C         -0.15005        2.07489        1.15056
C         -1.45421        1.17940       -0.68438
C         -1.07755        3.10177        1.32166
H          0.73869        2.03808        1.78619
C         -2.37281        2.22321       -0.50644
C         -1.68957        0.18579       -1.77939
C         -2.19551        3.17484        0.49100
H         -0.92070        3.85098        2.10178
H         -3.24664        2.27622       -1.16233
H         -2.92464        3.97847        0.61632
O         -0.28655       -1.84022        0.26526
C         -1.22629       -1.93725        1.05621
O         -1.64312       -0.96017        1.81012
C         -1.98561       -3.20888        1.19531
H         -1.35249       -4.05688        0.91218
H         -2.37747       -3.31990        2.21355
H         -2.83588       -3.15206        0.49787
H         -1.17903       -0.12981        1.54904
Pd         1.04988       -0.29068        0.00945
O          3.07995       -1.17884       -0.22148
C          3.48020        0.00292       -0.32110
O          2.63167        0.95874       -0.23556
C          4.91746        0.33961       -0.56339
H          5.21199        1.20285        0.04832
H          5.55292       -0.52737       -0.34740
H          5.04212        0.62356       -1.61952
Cl        -3.11787       -0.87270       -1.43841
H         -1.91863        0.68159       -2.73184
H         -0.82907       -0.47982       -1.91729
