49
Benzothiophene_H9_deriv1_Int2_Sub27.log	Energy: -981871.0541023
C         -0.48148        0.39967        0.06175
C         -0.59610        1.25295        1.17026
C          0.74336        0.38439       -0.60584
C          0.47695        2.07732        1.59794
S         -2.00379        1.47601        2.17152
C          1.83937        1.17409       -0.19454
H          0.87044       -0.26484       -1.47744
C          1.69427        2.01918        0.90093
C          0.10738        2.87641        2.73324
C         -1.17593        2.65679        3.12978
C          3.16349        1.06176       -0.89940
H          2.53073        2.64625        1.22264
H          0.78087        3.57959        3.22526
H         -1.69708        3.12779        3.96317
O         -2.11078        0.12217       -2.34407
C         -2.01925        1.30392       -2.67501
O         -1.59969        2.25331       -1.88818
C         -2.38576        1.75472       -4.04773
H         -2.82423        0.92592       -4.61249
H         -3.09044        2.59568       -3.98193
H         -1.48296        2.12504       -4.55602
H         -1.27237        1.85547       -1.04425
Pd        -1.97537       -0.74338       -0.47243
O         -3.54121       -2.31695       -0.34174
C         -3.11241       -2.51173        0.81853
O         -2.14256       -1.79772        1.25288
C         -3.68237       -3.56445        1.71519
H         -4.60672       -3.96995        1.28751
H         -2.94548       -4.37335        1.83138
H         -3.86781       -3.14330        2.71289
H          3.61054        2.06422       -1.00662
H          3.00868        0.67711       -1.92200
C          4.16847        0.15492       -0.17791
H          4.30752        0.56193        0.84281
C          5.52846        0.17695       -0.87548
H          5.90166        1.21328       -0.93768
H          5.39589       -0.16690       -1.91865
C          6.54916       -0.71469       -0.17685
H          7.50594       -0.69981       -0.72389
H          6.75998       -0.30370        0.82718
C          6.03653       -2.14352       -0.03395
H          6.76863       -2.76263        0.50973
H          5.93440       -2.59343       -1.03849
C          4.68320       -2.17485        0.66731
H          4.80674       -1.83092        1.71030
H          4.30289       -3.20741        0.72712
C          3.66592       -1.28114       -0.03328
H          3.45715       -1.68519       -1.04237
H          2.70693       -1.29423        0.50851
