42
Benzofuran_H13_deriv1_Int2_Sub20.log	Energy: -994361.4520834
C          0.55530       -0.71441       -0.42201
C         -0.87846       -0.91096       -0.28920
C          0.98520       -1.89344       -0.96791
C         -1.14705       -2.20485       -0.75535
C         -1.93432       -0.11289        0.17033
Cl         2.54646       -2.40550       -1.41919
O          0.00221       -2.80538       -1.16980
C         -2.42343       -2.74964       -0.77266
C         -3.23279       -0.61871        0.16235
H         -1.71503        0.90112        0.50059
C         -3.44954       -1.93622       -0.30681
H         -2.60762       -3.76125       -1.13740
C         -4.43079        0.21128        0.63246
H         -4.46509       -2.33843       -0.31306
O          3.12952        0.08192        0.76488
C          3.13123       -0.83530        1.58771
O          2.06467       -1.49344        1.93620
C          4.39290       -1.28653        2.23586
H          5.16791       -0.52044        2.12951
H          4.21430       -1.53117        3.29086
H          4.71947       -2.20792        1.72851
H          1.32598       -1.23487        1.32262
Pd         1.49722        0.97617       -0.10147
O          1.89540        3.13070       -0.06166
C          0.77595        3.26661       -0.60962
O          0.08185        2.21847       -0.85437
C          0.23637        4.60189       -1.00523
H         -0.82932        4.66845       -0.74769
H          0.80658        5.40172       -0.51830
H          0.32110        4.70960       -2.09730
C         -4.00992        1.60611        1.09730
H         -4.89628        2.17402        1.41896
H         -3.31677        1.55962        1.95098
H         -3.52214        2.17448        0.29085
C         -5.42355        0.37000       -0.52833
H         -5.79700       -0.60171       -0.88405
H         -6.29381        0.96717       -0.21183
H         -4.94913        0.87907       -1.38119
C         -5.11808       -0.50284        1.80501
H         -5.98462        0.07991        2.15656
H         -5.48117       -1.50165        1.52066
H         -4.42293       -0.62698        2.64954
