30
Benzofuran_H9_deriv1_Int2_Sub10.log	Energy: -1184082.5535579
C         -0.17158       -0.12537       -0.08392
C         -1.01977        0.82229       -0.66395
C         -0.81798       -1.23916        0.45953
C         -2.42095        0.71021       -0.70587
O         -0.64421        1.98978       -1.24896
C         -2.21821       -1.38471        0.43874
H         -0.22956       -2.04781        0.89741
C         -3.03654       -0.41643       -0.14284
C         -2.89179        1.89355       -1.37072
C         -1.77676        2.60930       -1.66583
Cl        -2.91502       -2.79847        1.14546
Cl        -4.75056       -0.56523       -0.18168
H         -3.92252        2.15709       -1.59289
H         -1.63240        3.56194       -2.16998
O          1.87589        1.96082        0.27816
C          1.23736        2.57706        1.12915
O          0.31597        2.03389        1.87661
C          1.45409        4.03078        1.36220
H          2.40085        4.34659        0.91210
H          0.62415        4.57782        0.88837
H          1.42943        4.25357        2.43681
H          0.15830        1.11102        1.56479
Pd         1.79232       -0.05965       -0.09722
O          3.87097       -0.77113       -0.25106
C          3.37699       -1.90749       -0.43800
O          2.10197       -2.03378       -0.41990
C          4.22021       -3.11015       -0.70906
H          3.79645       -3.99096       -0.20892
H          4.21672       -3.30654       -1.79223
H          5.25175       -2.93153       -0.38298
