33
Benzene_H10_Int2_Sub21.log	Energy: -561779.8197717
C         -0.83836        0.66548       -0.45376
C         -1.35191        1.43967        0.60776
C         -1.43561        0.74115       -1.72166
C         -2.45790        2.26775        0.35757
C         -0.71509        1.43512        1.97459
C         -2.52879        1.57550       -1.94859
H         -1.03819        0.14009       -2.54422
C         -3.04351        2.34035       -0.90235
H         -2.86266        2.86651        1.17932
H         -2.98040        1.62413       -2.94267
H         -3.90488        2.99179       -1.06771
O         -0.37262       -2.20927        0.04263
C         -1.53444       -2.44060        0.37177
O         -2.44500       -1.52579        0.54468
C         -2.01001       -3.83582        0.59993
H         -1.17467       -4.53794        0.51372
H         -2.47588       -3.90746        1.59302
H         -2.78618       -4.07660       -0.14164
H         -2.07155       -0.63419        0.32185
Pd         0.73289       -0.48082       -0.21956
O          2.90484       -1.04711       -0.08349
C          3.13014        0.16695       -0.27777
O          2.14552        0.97236       -0.43766
C          4.51762        0.72738       -0.31456
H          4.66140        1.38908        0.55271
H          5.25685       -0.08159       -0.28818
H          4.64812        1.33968       -1.21777
H         -1.48768        1.63566        2.73530
H         -0.31364        0.42945        2.18559
C          0.41136        2.45897        2.09415
H          0.85691        2.43683        3.10080
H          1.20115        2.25218        1.35698
H          0.03558        3.47750        1.91086
