30
Benzofuran_H9_deriv1_Int2_Sub26.log	Energy: -1184082.1715804
C         -0.08891        0.66916       -0.01448
C          1.27503        0.60046       -0.30100
C         -0.56545        1.95412        0.27217
C          2.14854        1.70512       -0.29283
O          1.98115       -0.53410       -0.59375
C          0.28806        3.07068        0.27928
H         -1.62828        2.10328        0.47147
C          1.64608        2.97783        0.00138
C          3.45424        1.17920       -0.60082
C          3.26573       -0.15610       -0.75792
Cl        -0.38885        4.62680        0.64932
H          2.28232        3.86293        0.01895
H          4.39697        1.71236       -0.68555
Cl         4.35988       -1.40918       -1.09908
O         -0.01976       -2.26630        0.37975
C          0.78977       -2.23359        1.30466
O          0.88303       -1.23531        2.14179
C          1.77011       -3.33029        1.51561
H          1.36770       -4.27179        1.12584
H          2.67158       -3.06973        0.93705
H          2.04672       -3.41617        2.57308
H          0.29385       -0.51091        1.83035
Pd        -1.39045       -0.80813       -0.07731
O         -3.32733       -1.82492       -0.32976
C         -3.79808       -0.68867       -0.56798
O         -3.01222        0.32267       -0.52072
C         -5.23085       -0.47720       -0.93222
H         -5.60628        0.44711       -0.47370
H         -5.30371       -0.36243       -2.02464
H         -5.83210       -1.34090       -0.62430
