45
Benzoisoxazole_H9_Int2_Sub19.log	Energy: -764633.5262865
C         -0.49485       -0.54609       -0.37948
C         -0.49657       -1.84158       -0.89552
C          0.72389        0.08033       -0.01994
C          0.74124       -2.48890       -1.03027
H         -1.42368       -2.33669       -1.19415
C          1.96688       -0.54168       -0.13240
H          0.68308        1.11246        0.33884
C          1.92059       -1.84113       -0.64832
C          1.22518       -3.75696       -1.49057
C          3.26634        0.12739        0.22995
O          2.97041       -2.65633       -0.86525
H          0.66959       -4.60445       -1.89214
N          2.51958       -3.84105       -1.38853
O         -3.25123       -1.12026        0.37705
C         -2.98659       -1.81688        1.35724
O         -1.85654       -1.74596        2.00508
C         -3.94853       -2.82211        1.88706
H         -4.90421       -2.74456        1.35912
H         -3.52259       -3.82817        1.75619
H         -4.08705       -2.66528        2.96608
H         -1.24981       -1.15114        1.50084
Pd        -2.13316        0.51697       -0.22352
O         -3.46397        2.30693       -0.28713
C         -2.43641        2.94086       -0.61425
O         -1.32075        2.31612       -0.70395
C         -2.46851        4.40163       -0.93373
H         -2.46851        4.52391       -2.02774
H         -3.37641        4.86043       -0.52444
H         -1.56900        4.89598       -0.54361
H          4.06448       -0.62640        0.11454
C          3.29207        0.60660        1.68601
H          3.09404       -0.24299        2.35937
H          2.47036        1.32798        1.84324
C          4.61926        1.27157        2.03274
H          4.60179        1.62988        3.07477
H          5.42600        0.51839        1.97739
C          4.93669        2.41784        1.07855
H          5.91523        2.86168        1.32333
H          4.18853        3.21995        1.21492
C          4.91124        1.95255       -0.37328
H          5.73328        1.23277       -0.53865
H          5.10002        2.79887       -1.05334
C          3.58645        1.28590       -0.72483
H          2.77028        2.02847       -0.67089
H          3.59929        0.91580       -1.76233
