32
Benzene_H10_Int2_Sub120.log	Energy: -571840.7996491
C         -0.71242        0.05430        0.46177
C         -1.53941       -0.74916       -0.32138
C         -1.27158        0.89736        1.43722
C         -2.94240       -0.73785       -0.15557
H         -1.09667       -1.42841       -1.05665
C         -2.65434        0.90439        1.60686
H         -0.63606        1.53055        2.06053
C         -3.48957        0.10615        0.82820
N         -3.72616       -1.53133       -0.95446
H         -3.10021        1.54686        2.37154
H         -4.56738        0.13493        0.99216
O          1.37547        2.02704        0.15010
C          0.70673        2.79401       -0.54183
O         -0.34944        2.43414       -1.21623
C          1.05293        4.23889       -0.65796
H          2.03476        4.42846       -0.21249
H          1.03630        4.54229       -1.71376
H          0.28430        4.82847       -0.13543
H         -0.58795        1.50674       -0.96862
Pd         1.21756       -0.03995        0.17925
O          3.25216       -0.94119       -0.12749
C          2.66005       -2.04163       -0.07775
O          1.38909       -2.06744        0.07536
C          3.39614       -3.34313       -0.16184
H          4.39156       -3.18983       -0.59553
H          3.50864       -3.75161        0.85420
H          2.81984       -4.06939       -0.75023
H         -3.23956       -2.24789       -1.47334
C         -5.12911       -1.71946       -0.73719
H         -5.52022       -2.42127       -1.48590
H         -5.68552       -0.77373       -0.85456
H         -5.36690       -2.12293        0.26684
