46
Benzo13dioxol_H9_Int2_Sub3.log	Energy: -777865.5987808
C          0.59562        0.62123       -0.64924
C          1.39409       -0.40451       -0.06624
C          1.17281        1.58591       -1.48848
C          2.73733       -0.36947       -0.40912
C          0.89753       -1.51389        0.83051
C          2.54440        1.59660       -1.80234
H          0.53660        2.35846       -1.92831
C          3.30408        0.59250       -1.24401
O          3.72402       -1.20743        0.02435
H          2.98297        2.35430       -2.45268
O          4.64288        0.37278       -1.33995
C          4.86484       -0.89086       -0.74625
H          5.75239       -0.84569       -0.09693
H          5.00405       -1.65519       -1.53741
O         -1.32290        2.05513        1.14525
C         -0.43152        2.58770        1.80396
O          0.83911        2.45558        1.55526
C         -0.74870        3.43496        2.98965
H         -1.82086        3.65455        3.01974
H         -0.46027        2.88482        3.89864
H         -0.15619        4.35933        2.96282
H          0.95665        1.87273        0.75798
Pd        -1.35788        0.70902       -0.43346
O         -3.51580        0.31075       -0.84838
C         -3.10528       -0.45268       -1.75117
O         -1.84511       -0.57345       -1.94501
C         -4.03792       -1.25555       -2.60255
H         -5.07297       -0.92915       -2.44793
H         -3.75529       -1.16100       -3.66005
H         -3.94339       -2.31789       -2.33117
H          1.79643       -2.01850        1.22521
C          0.10748       -2.56357        0.03580
H          0.73816       -2.94601       -0.78271
H         -0.75435       -2.07653       -0.44987
C         -0.36636       -3.70603        0.92597
H         -0.96755       -4.41715        0.33630
H          0.50894       -4.27168        1.29494
C         -1.16504       -3.19301        2.11882
H         -1.47968       -4.03030        2.76277
H         -2.09087       -2.71100        1.75538
C         -0.35909       -2.17753        2.92104
H          0.52364       -2.67776        3.35991
H         -0.95244       -1.79521        3.76764
C          0.09939       -1.02123        2.04128
H         -0.79091       -0.47084        1.68664
H          0.70769       -0.30581        2.61999
