42
Benzofuran_H9_deriv1_Int2_Sub20.log	Energy: -994364.7402644
C         -0.38626        0.43528        0.08845
C          0.82699       -0.15217       -0.28079
C         -0.29460        1.73195        0.60453
C          2.08415        0.46900       -0.14853
O          0.98188       -1.40049       -0.79041
C          0.94973        2.37051        0.74587
H         -1.20055        2.27460        0.88092
C          2.14548        1.76733        0.37929
C          3.05546       -0.49573       -0.63124
C          2.31303       -1.57826       -0.99244
Cl         0.98696        3.97992        1.40109
H          3.08503        2.30375        0.50821
C          4.55541       -0.34040       -0.71940
H          2.59228       -2.53997       -1.41429
O         -1.55482       -2.25029        0.41651
C         -0.85838       -2.53650        1.38792
O         -0.31016       -1.65093        2.17397
C         -0.55856       -3.95178        1.73820
H         -1.26360       -4.62113        1.23451
H          0.46361       -4.17505        1.39471
H         -0.58357       -4.09130        2.82665
H         -0.45154       -0.75333        1.78874
Pd        -2.15770       -0.37280       -0.17115
O         -4.30471       -0.50925       -0.67325
C         -4.23306        0.71651       -0.92170
O         -3.11327        1.31576       -0.75423
C         -5.40048        1.49629       -1.43367
H         -5.41423        2.49780       -0.98381
H         -5.29218        1.62016       -2.52213
H         -6.33463        0.96038       -1.22751
C          5.18814       -1.60806       -1.29587
H          6.28072       -1.49169       -1.35877
H          4.98156       -2.48474       -0.66231
H          4.81526       -1.81810       -2.31033
C          4.89171        0.84373       -1.63668
H          4.46106        1.78464       -1.26540
H          5.98295        0.97631       -1.70666
H          4.49963        0.67569       -2.65107
C          5.12655       -0.09476        0.68427
H          6.22001        0.02915        0.63680
H          4.70516        0.80970        1.14581
H          4.90548       -0.94277        1.35010
