30
Benzene_H10_Int2_Sub57.log	Energy: -1113770.8601575
C          0.18291        0.79245       -0.77022
C         -0.05652        1.42398       -2.00259
C          1.42469        0.99717       -0.14244
C          0.92039        2.21526       -2.60469
H         -1.02954        1.30447       -2.48644
C          2.39681        1.80254       -0.74847
C          1.71491        0.35973        1.18339
C          2.15239        2.40318       -1.97655
H          0.71420        2.69435       -3.56510
H          3.35072        1.95499       -0.23708
H          2.91939        3.02606       -2.44192
O         -0.09505       -2.00009        0.06952
C          0.70028       -2.44606       -0.75988
O          1.05726       -1.80804       -1.83766
C          1.34668       -3.77189       -0.56853
H          0.71482       -4.41075        0.05810
H          1.56505       -4.24277       -1.53457
H          2.29910       -3.59313       -0.04506
H          0.69309       -0.89181       -1.80951
Pd        -1.26242       -0.29958       -0.01603
O         -3.28263       -0.82764        0.73419
C         -3.57569        0.36931        0.51112
O         -2.68311        1.14579        0.01943
C         -4.92449        0.93221        0.82518
H         -5.23905        1.62667        0.03489
H         -5.65430        0.12346        0.94967
H         -4.85874        1.50368        1.76371
Cl         3.05270       -0.84040        1.04180
Cl         2.12854        1.56599        2.42467
H          0.84967       -0.19683        1.55906
