37
Benzene_H10_Int2_Sub2.log	Energy: -781847.3552093
C          0.71230       -0.69871       -0.60647
C         -0.54290       -0.20088       -0.23985
C          0.79171       -1.93433       -1.26490
C         -1.71757       -0.92434       -0.49940
H         -0.61094        0.79193        0.21204
C         -0.37188       -2.65314       -1.53936
H          1.76128       -2.33512       -1.57268
C         -1.61481       -2.15920       -1.15521
C         -3.03568       -0.38541       -0.09571
H         -0.30685       -3.61594       -2.05287
H         -2.51502       -2.74709       -1.34734
O          3.44907       -1.24183        0.21512
C          3.17072       -2.04836        1.10236
O          2.01781       -2.07615        1.71294
C          4.13989       -3.08518        1.55176
H          5.11801       -2.91128        1.09223
H          4.21559       -3.07073        2.64795
H          3.75827       -4.07638        1.26368
H          1.41278       -1.44056        1.26080
Pd         2.28939        0.40760       -0.26413
O          3.54027        2.24494       -0.08037
C          2.49718        2.86878       -0.38003
O          1.41850        2.21207       -0.59354
C          2.47278        4.36126       -0.47888
H          2.60176        4.78678        0.52760
H          3.32062        4.70069       -1.08961
H          1.52577        4.71158       -0.90590
C         -3.16830        0.35411        1.08780
C         -4.16873       -0.60592       -0.89137
C         -5.54957        0.64285        0.67629
C         -5.39437       -0.09142       -0.49279
C         -4.41321        0.85008        1.44810
H         -2.31807        0.53033        1.74720
H         -6.51983        1.03998        0.97410
H         -4.10536       -1.14805       -1.83529
F         -4.52841        1.54159        2.57871
F         -6.46053       -0.29927       -1.26085
