32
Benzooxazole_H10_Int2_Sub25.log	Energy: -828898.0205538
C          0.46517        0.25564       -0.41291
C          0.08329        1.32164       -1.26386
C         -0.50126       -0.52893        0.22976
C         -1.24951        1.64425       -1.49625
H          0.86111        1.90230       -1.76625
C         -1.82214       -0.17838       -0.00950
H         -0.23082       -1.38254        0.85360
C         -2.21727        0.87570       -0.84513
H         -1.53828        2.45940       -2.16197
O         -2.95741       -0.75092        0.47798
N         -3.60246        0.93419       -0.85576
C         -3.95233       -0.02528       -0.07804
C         -5.35100       -0.43578        0.29246
O          2.95859        1.74104       -0.19199
C          2.55320        2.58926        0.60334
O          1.56392        2.38209        1.42865
C          3.15877        3.94628        0.68044
H          2.42070        4.68367        0.33004
H          3.39160        4.18935        1.72647
H          4.05943        3.99301        0.06017
H          1.16528        1.50482        1.21749
Pd         2.34506       -0.23664       -0.17182
O          4.13093       -1.53219        0.09166
C          3.32359       -2.48841        0.08300
O          2.07078       -2.24042       -0.03332
C          3.76993       -3.91180        0.17408
H          3.76397       -4.34862       -0.83636
H          4.78749       -3.96559        0.57893
H          3.07043       -4.49088        0.79130
F         -6.23656        0.33499       -0.31274
F         -5.53225       -0.34188        1.61010
F         -5.57605       -1.70206       -0.05598
