44
Benzoisoxazole_H8_deriv1_Int2_Sub28.log	Energy: -740736.1416687
C         -0.09903       -0.36727       -0.09713
C         -0.03604       -1.61046       -0.75962
C          1.05958        0.05635        0.54870
C          1.14720       -2.35901       -0.73381
C         -0.90775       -2.44505       -1.53224
C          2.25945       -0.70232        0.55593
H          1.05816        1.02342        1.05795
C          2.30654       -1.93880       -0.08540
O          0.96789       -3.50453       -1.41270
H         -1.94102       -2.26599       -1.82920
N         -0.31549       -3.54224       -1.90460
C          3.48387       -0.14955        1.23050
H          3.20828       -2.55267       -0.08595
O         -2.89847       -0.88217        0.34336
C         -2.71793       -1.68269        1.26256
O         -1.65971       -1.68144        2.02355
C         -3.70214       -2.75826        1.55984
H         -3.79463       -2.90405        2.64374
H         -4.66982       -2.52037        1.10601
H         -3.31888       -3.69656        1.12797
H         -1.00442       -1.03986        1.65739
Pd        -1.69989        0.74814       -0.08561
O         -2.96293        2.57232       -0.23631
C         -1.89115        3.18096       -0.45498
O         -0.79129        2.52305       -0.45322
C         -1.85152        4.64652       -0.74789
H         -2.77739        5.12675       -0.40960
H         -0.97452        5.10557       -0.27280
H         -1.75371        4.78632       -1.83543
H          4.10701       -0.98537        1.58864
H          3.17819        0.42067        2.12336
C          4.37632        0.77111        0.35783
C          4.88579        0.01657       -0.87051
H          5.56282        0.65458       -1.45996
H          5.44586       -0.88799       -0.58242
H          4.05906       -0.29146       -1.52813
C          3.60542        2.01317       -0.09190
H          3.22472        2.58339        0.77079
H          4.26283        2.68206       -0.66944
H          2.74604        1.75678       -0.72925
C          5.56684        1.20030        1.21810
H          6.24145        1.86151        0.65185
H          5.23406        1.74798        2.11433
H          6.15263        0.32933        1.55313
