39
Benzo13dioxol_H8_Int2_Sub5.log	Energy: -704666.5299085
C          0.65253        0.36725       -0.14880
C          1.55002        0.04231       -1.15288
C          1.06129        1.37922        0.76286
C          2.79930        0.64580       -1.28157
O          1.43040       -0.92364       -2.11061
C          2.32220        1.97439        0.62040
C          0.10275        1.83531        1.84960
C          3.21751        1.62174       -0.40011
O          3.46878        0.07879       -2.32163
C          2.50680       -0.70792       -2.99897
H          2.62416        2.74987        1.32728
H          4.19935        2.08752       -0.49156
H          2.95166       -1.67188       -3.28728
H          2.14653       -0.16341       -3.89527
O         -0.46854       -2.16032        0.89996
C          0.52154       -2.40258        1.58869
O          1.50941       -1.57566        1.77215
C          0.67299       -3.71341        2.28386
H         -0.24032       -4.30668        2.17369
H          1.52701       -4.25193        1.84641
H          0.90295       -3.54439        3.34516
H          1.36428       -0.75266        1.23205
Pd        -1.11654       -0.48469       -0.10783
O         -3.30027       -0.74323       -0.45756
C         -3.24615        0.37316       -1.01980
O         -2.12102        0.98313       -1.08786
C         -4.45174        1.03119       -1.61192
H         -4.63681        1.98344       -1.09346
H         -4.26114        1.26650       -2.66874
H         -5.32686        0.37771       -1.51934
H         -0.59355        0.99319        2.01700
C          0.78331        2.14341        3.17879
H          0.03007        2.35136        3.95414
H          1.40274        1.29976        3.52074
H          1.43031        3.03256        3.11368
C         -0.73665        3.01424        1.35380
H         -1.27905        2.74661        0.43541
H         -1.47125        3.31901        2.11656
H         -0.09371        3.88198        1.13448
