34
Benzoisoxazole_H8_Int2_Sub31.log	Energy: -676844.4767181
C          0.32141       -0.37808       -0.05605
C          1.28123        0.31453        0.72167
C          0.83225       -1.38590       -0.87060
C          2.63516        0.00219        0.63595
C          1.28736        1.37088        1.69322
C          2.20892       -1.69345       -0.94417
H          0.14261       -1.98594       -1.47017
C          3.16861       -1.00338       -0.19497
O          3.34863        0.79123        1.46107
H          0.44232        1.92891        2.09632
N          2.48976        1.64000        2.11496
H          2.52738       -2.50010       -1.60631
N          4.51508       -1.22817       -0.23471
O         -1.26583        2.02623       -0.08518
C         -0.57630        2.58071       -0.94374
O          0.18092        1.94001       -1.78660
C         -0.53435        4.06437       -1.06304
H         -0.53462        4.36068       -2.12013
H         -1.37774        4.51073       -0.52609
H          0.41014        4.41685       -0.61935
H          0.20594        0.98209       -1.52359
Pd        -1.59762       -0.01132        0.05278
O         -3.78557       -0.37363        0.21504
C         -3.48572       -1.58902        0.24056
O         -2.25464       -1.92926        0.14977
C         -4.51762       -2.65962        0.40380
H         -5.51183       -2.27019        0.15424
H         -4.26772       -3.52714       -0.22118
H         -4.51767       -2.99285        1.45298
H          5.06291       -0.77618        0.48321
C          5.09419       -2.33185       -0.93974
H          6.18447       -2.31001       -0.81411
H          4.88526       -2.27041       -2.02166
H          4.72654       -3.31366       -0.58354
