37
Benzothiophene_H13_deriv1_Int2_Sub32.log	Energy: -1031035.3981957
C          0.40088        0.28568       -1.01589
C          1.59511       -0.36759       -0.49749
C          0.66604        0.91321       -2.20580
C          2.71084       -0.17255       -1.35771
C          1.81269       -1.13711        0.67531
H         -0.04717        1.44755       -2.83471
S          2.30699        0.76820       -2.75600
C          3.98057       -0.69154       -1.08650
C          3.07493       -1.65255        0.93529
C          0.69373       -1.42088        1.65918
C          4.15424       -1.43331        0.06734
H          4.80979       -0.51528       -1.77497
H          3.22220       -2.24687        1.83670
H          5.13271       -1.85601        0.30454
O         -1.31778        1.99593        0.75613
C         -0.49710        2.90742        0.80870
O          0.60286        2.94387        0.11003
C         -0.69699        4.07992        1.70954
H         -1.63851        3.97708        2.25851
H          0.14963        4.15008        2.40806
H         -0.70059        5.00306        1.11203
H          0.65279        2.13621       -0.47156
Pd        -1.44225        0.23468       -0.33627
O         -3.50398       -0.45079       -0.05734
C         -3.19692       -1.41236       -0.80342
O         -2.02334       -1.45047       -1.30771
C         -4.14722       -2.52911       -1.09103
H         -4.03326       -2.86820       -2.12902
H         -3.90155       -3.37572       -0.43164
H         -5.17790       -2.21150       -0.89224
F          1.17039       -2.17568        2.68760
F         -0.27533       -2.14532        1.08423
O          0.08408       -0.31680        2.17115
C          0.91761        0.60190        2.83534
H          1.49828        0.11335        3.63356
H          1.61108        1.09934        2.13582
H          0.25373        1.34896        3.28750
