28
Benzene_H10_Int2_Sub16.log	Energy: -570321.3151197
C          0.91999       -0.68608       -0.40467
C          1.18202       -1.68470        0.56122
C          1.81097       -0.56453       -1.47962
C          2.29536       -2.53445        0.43688
C          0.32431       -1.82374        1.70310
C          2.90900       -1.41444       -1.60482
H          1.63644        0.20278       -2.23876
C          3.15240       -2.40062       -0.64735
H          2.47336       -3.29498        1.19992
H          3.58202       -1.30638       -2.45928
H          4.01409       -3.06410       -0.74567
O          0.33402        2.19072       -0.22648
C          1.32684        2.48269        0.43842
O          2.04353        1.61069        1.09235
C          1.80208        3.88921        0.55607
H          1.15404        4.55515       -0.02226
H          1.79993        4.18166        1.61639
H          2.84101        3.95552        0.20216
H          1.70655        0.70698        0.89299
Pd        -0.70271        0.40273       -0.29489
O         -2.84849        0.89195       -0.21840
C         -3.04121       -0.34637       -0.26189
O         -2.02784       -1.12384       -0.35335
C         -4.40542       -0.94869       -0.18591
H         -4.51688       -1.44520        0.78986
H         -5.17182       -0.17226       -0.29289
H         -4.51921       -1.71810       -0.96178
N         -0.33468       -1.92752        2.65182
