53
Benzoisoxazole_H9_deriv1_Int2_Sub4.log	Energy: -814678.4220759
C          0.01745       -0.09548       -0.09126
C          0.46356       -1.42080        0.01149
C          0.92561        0.97624       -0.32951
C          1.87011       -1.58384       -0.15779
C         -0.39704       -2.66471        0.27700
C          2.29500        0.83659       -0.49758
H          0.50348        1.98120       -0.38639
C          2.71903       -0.49982       -0.40155
C          2.79762       -2.68438       -0.15899
C          3.25708        1.98821       -0.75573
O          3.98777       -0.93524       -0.52228
H          2.61930       -3.74847       -0.01765
N          4.01879       -2.29437       -0.37154
O         -1.63291        1.35607        1.87395
C         -0.92453        1.04931        2.83070
O          0.03677        0.17022        2.77611
C         -1.10853        1.68180        4.16846
H         -1.98338        2.33961        4.15829
H         -1.22023        0.89937        4.93247
H         -0.20483        2.25611        4.42130
H          0.14288       -0.14462        1.83951
Pd        -1.83279        0.57221       -0.04025
O         -3.85837        1.13914       -0.76205
C         -3.56073        0.53208       -1.81605
O         -2.41219       -0.02532       -1.91404
C         -4.50243        0.44008       -2.97531
H         -4.61026       -0.60997       -3.28161
H         -5.47769        0.86489       -2.71073
H         -4.07793        0.98757       -3.82989
C          2.52417        3.32795       -0.80973
H          3.24813        4.13460       -0.99943
H          1.77694        3.35457       -1.61739
H          2.01478        3.55588        0.13932
C          4.29442        2.03858        0.37680
H          4.87265        1.10632        0.43710
H          4.99976        2.86710        0.20591
H          3.80384        2.20376        1.34870
C          3.96406        1.75900       -2.10067
H          4.66536        2.58386       -2.30307
H          4.53367        0.81958       -2.10245
H          3.23399        1.72155       -2.92364
C         -0.28282       -3.60692       -0.93325
H         -0.88869       -4.51121       -0.76515
H         -0.65817       -3.10642       -1.83838
H          0.74833       -3.92689       -1.13265
C          0.09317       -3.35932        1.55951
H         -0.03263       -2.69718        2.43053
H         -0.49827       -4.26998        1.74251
H          1.15032       -3.65072        1.51998
C         -1.88497       -2.37363        0.46992
H         -2.40585       -3.31874        0.68997
H         -2.07223       -1.69493        1.31662
H         -2.33619       -1.94256       -0.43391
