44
Benzoisoxazole_H8_deriv1_Int2_Sub20.log	Energy: -740727.7802243
C          0.17889       -0.23090       -0.07411
C         -0.68384        0.60855       -0.79729
C         -0.44550       -1.21983        0.67162
C         -2.07599        0.43394       -0.73747
C         -0.53080        1.73183       -1.66907
C         -1.85374       -1.40050        0.73047
H          0.17334       -1.91903        1.24065
C         -2.73711       -0.56663        0.00864
O         -2.64596        1.38938       -1.50707
H          0.38735        2.21021       -2.00942
N         -1.68128        2.17883       -2.07416
C         -2.28474       -2.56084        1.59252
C         -4.27300       -0.69647        0.05254
O          1.96499        2.00081        0.23567
C          1.29343        2.55114        1.10992
O          0.46425        1.91887        1.89162
C          1.35591        4.02270        1.32346
H          1.31903        4.25557        2.39548
H          2.25761        4.43380        0.85781
H          0.46643        4.47162        0.85342
H          0.37381        0.98626        1.57708
Pd         2.12120       -0.03650       -0.08289
O          4.26983       -0.58072       -0.20059
C          3.86737       -1.75626       -0.35657
O          2.60766       -1.98845       -0.34466
C          4.80740       -2.89609       -0.58611
H          5.81961       -2.62445       -0.26369
H          4.45449       -3.79215       -0.05872
H          4.82532       -3.12737       -1.66222
H         -3.22837       -2.39543        2.12260
H         -1.51264       -2.77228        2.34487
H         -2.40180       -3.47497        0.98851
C         -4.98915        0.20426       -0.96540
H         -6.06989        0.00632       -0.89961
H         -4.82866        1.27107       -0.77124
H         -4.66957       -0.00107       -1.99628
C         -4.71437       -2.13108       -0.28313
H         -4.40149       -2.87657        0.45492
H         -5.81323       -2.16992       -0.33937
H         -4.31832       -2.43621       -1.26385
C         -4.77737       -0.27314        1.44247
H         -5.87376       -0.37028        1.49090
H         -4.35296       -0.87124        2.25966
H         -4.52304        0.77994        1.63576
