29
Benzoisoxazole_H10_Int2_Sub18.log	Energy: -905804.0338118
C          0.35898       -0.04092       -0.20858
C          0.92757       -1.16459        0.44126
C          1.16041        0.90259       -0.85506
C          2.30146       -1.34825        0.46912
H          0.27803       -1.91048        0.90280
C          2.53670        0.68077       -0.81462
H          0.74740        1.76538       -1.37965
C          3.12609       -0.41038       -0.16764
Cl         3.00578       -2.71075        1.26345
O          3.50154        1.44223       -1.35679
C          4.52111       -0.19878       -0.39300
N          4.72783        0.88230       -1.08620
H          5.36715       -0.80421       -0.06995
O         -1.53732        2.15238       -0.13699
C         -1.02723        2.77641        0.79432
O         -0.33670        2.20555        1.74337
C         -1.14147        4.25528        0.90479
H         -1.41361        4.53408        1.93184
H         -0.15606        4.69881        0.69414
H         -1.87830        4.63094        0.18771
H         -0.22567        1.25458        1.51196
Pd        -1.59418        0.08616       -0.22943
O         -3.71328       -0.56196       -0.29567
C         -3.26186       -1.72951       -0.30917
O         -1.99200       -1.90112       -0.25997
C         -4.14795       -2.92817       -0.41006
H         -5.17373       -2.66726       -0.12382
H         -4.14699       -3.28025       -1.45309
H         -3.75962       -3.74173        0.21669
