33
Benzoisoxazole_H8_Int2_Sub32.log	Energy: -689296.2318692
C          0.26733       -0.47631       -0.16914
C          1.32406        0.07287        0.58594
C          0.63429       -1.45705       -1.09103
C          2.65590       -0.32884        0.40681
C          1.44539        1.05692        1.62314
C          1.97124       -1.85397       -1.26617
H         -0.13672       -1.95087       -1.68769
C          3.02563       -1.30986       -0.53285
O          3.45016        0.36549        1.25183
H          0.65685        1.63694        2.10218
N          2.67911        1.21856        1.99833
H          2.22479       -2.62393       -1.99799
O          4.26495       -1.75616       -0.78798
O         -1.11188        2.04927        0.08576
C         -0.43426        2.62251       -0.76966
O          0.20329        2.00095       -1.72019
C         -0.26386        4.10109       -0.76113
H         -0.29618        4.49418       -1.78558
H         -1.03089        4.56602       -0.13315
H          0.73226        4.32752       -0.34897
H          0.15335        1.02656       -1.54925
Pd        -1.60336        0.04018        0.08020
O         -3.79705       -0.15292        0.33977
C         -3.60488       -1.38747        0.25300
O         -2.41322       -1.81819        0.06507
C         -4.71581       -2.37843        0.39048
H         -5.68371       -1.88834        0.23152
H         -4.57493       -3.20765       -0.31532
H         -4.69049       -2.79804        1.40788
C          5.34965       -1.30625       -0.00893
H          5.50475       -0.22118       -0.11258
H          5.20913       -1.54179        1.05776
H          6.23445       -1.83631       -0.38298
