30
Benzo13dioxol_H9_Int2_Sub2.log	Energy: -919034.9494422
C          0.39426       -0.42701       -0.32710
C          1.40331       -0.06136        0.59216
C          0.74784       -1.20400       -1.43880
C          2.69732       -0.49152        0.36545
Cl         1.07505        0.91581        1.98418
C          2.06677       -1.62975       -1.68111
H         -0.03734       -1.51212       -2.13332
C          3.01749       -1.25873       -0.75440
O          3.82031       -0.24481        1.08178
H          2.32705       -2.22978       -2.55364
O          4.35546       -1.50038       -0.75005
C          4.82147       -1.07067        0.51376
H          5.75074       -0.49418        0.39224
H          4.99176       -1.94833        1.16827
O         -1.19662        2.05700       -0.04666
C         -0.38286        2.73291       -0.67286
O          0.53374        2.23202       -1.45255
C         -0.36495        4.21813       -0.56069
H         -1.32784        4.57788       -0.18294
H          0.42620        4.49134        0.15531
H         -0.11744        4.67555       -1.52699
H          0.52270        1.24509       -1.36919
Pd        -1.50001        0.01680       -0.03464
O         -3.66422       -0.29093        0.26884
C         -3.40910       -1.51612        0.20355
O         -2.20151       -1.88718       -0.00211
C         -4.46439       -2.55897        0.38790
H         -5.45900       -2.12359        0.23420
H         -4.29272       -3.39871       -0.29836
H         -4.39998       -2.94820        1.41561
