38
Benzooxazole_H10_Int2_Sub5.log	Energy: -691457.6486205
C          0.54567       -0.17849       -0.24011
C          1.08328       -0.57097        1.01851
C          1.34458       -0.11319       -1.39159
C          2.43887       -0.90704        1.12479
C          0.17746       -0.67209        2.23518
C          2.67655       -0.46255       -1.23989
H          0.94096        0.18926       -2.35967
C          3.23563       -0.85293       -0.01640
H          2.87640       -1.21076        2.07733
O          3.67206       -0.49198       -2.16673
N          4.58428       -1.11935       -0.21523
C          4.76306       -0.89424       -1.46782
H          5.68681       -0.98813       -2.03821
O         -1.10703        2.26372       -0.36268
C         -0.25664        2.98457        0.15653
O          0.84473        2.54685        0.69778
C         -0.42148        4.46575        0.20329
H         -0.32047        4.81269        1.24157
H          0.38617        4.93639       -0.37671
H         -1.39646        4.75018       -0.20494
H          0.91497        1.56565        0.56932
Pd        -1.36658        0.21456       -0.43702
O         -3.55273       -0.17402       -0.69462
C         -3.24139       -1.38540       -0.68078
O         -2.00897       -1.71343       -0.55190
C         -4.25883       -2.47528       -0.80384
H         -4.22848       -3.10482        0.09747
H         -5.26078       -2.04967       -0.93175
H         -4.00666       -3.11848       -1.65913
H         -0.70937       -0.05051        2.01374
C         -0.31716       -2.10895        2.40720
H         -1.00886       -2.18228        3.26163
H         -0.84338       -2.44837        1.50344
H          0.52754       -2.79150        2.59448
C          0.81449       -0.13146        3.51113
H          1.17988        0.89844        3.37568
H          0.08112       -0.12824        4.33192
H          1.66418       -0.74970        3.84139
