33
Benzofuran_H14_Int2_Sub14.log	Energy: -632095.8521749
C          0.31928       -0.25293       -0.14730
C          1.10928       -1.11094        0.57277
O          1.09162        0.52139       -0.97867
C          2.46814       -0.86808        0.15959
H          0.74674       -1.84302        1.29066
C          2.38543        0.15279       -0.80163
C          3.72350       -1.40398        0.50738
C          3.48980        0.68670       -1.45416
C          4.83468       -0.87013       -0.14358
C          3.83527       -2.49622        1.52577
C          4.72481        0.15173       -1.10242
H          3.38420        1.47632       -2.19940
H          5.82594       -1.26188        0.09981
H          5.63004        0.53105       -1.58214
O         -1.27821        2.08375       -0.11711
C         -0.49393        2.69543        0.60918
O          0.32393        2.12438        1.44736
C         -0.40844        4.18151        0.57210
H          0.52075        4.45887        0.05059
H         -1.26783        4.59519        0.03470
H         -0.34728        4.58278        1.59237
H          0.29816        1.14241        1.31962
Pd        -1.59180        0.05134       -0.13579
O         -3.75380       -0.30665       -0.11815
C         -3.46899       -1.52835       -0.12721
O         -2.23632       -1.87170       -0.11683
C         -4.51869       -2.59000       -0.17949
H         -4.61052       -2.94390       -1.21785
H         -4.22406       -3.44661        0.44082
H         -5.48461       -2.18417        0.14409
H          3.27065       -3.38984        1.21361
H          3.42103       -2.17985        2.49702
H          4.88109       -2.79362        1.68382
