30
Benzene_H10_Int2_Sub27.log	Energy: -537130.2772605
C          0.87690       -0.77316       -0.27206
C          1.19032       -1.66370        0.77745
C          1.69479       -0.71898       -1.40979
C          2.33175       -2.46779        0.64678
C          0.32324       -1.76087        2.00055
C          2.81906       -1.53691       -1.52267
H          1.44942       -0.02707       -2.22079
C          3.13893       -2.41188       -0.48707
H          2.58447       -3.15795        1.45708
H          3.44330       -1.48696       -2.41838
H          4.01976       -3.05419       -0.56046
O          0.34428        2.10318       -0.24959
C          1.40412        2.39868        0.30091
O          2.19340        1.53595        0.87611
C          1.88807        3.80803        0.34669
H          1.12281        4.48288       -0.04977
H          2.14469        4.07585        1.38129
H          2.80966        3.88930       -0.24895
H          1.85815        0.62064        0.69517
Pd        -0.73498        0.33741       -0.19966
O         -2.91455        0.86027       -0.12944
C         -3.10982       -0.37448       -0.09755
O         -2.10552       -1.17012       -0.10902
C         -4.48525       -0.96424       -0.06582
H         -4.53614       -1.75719        0.69292
H         -5.22961       -0.18533        0.13673
H         -4.69769       -1.42815       -1.04087
H          0.27114       -0.79726        2.53323
H          0.70367       -2.51716        2.70140
H         -0.70798       -2.02053        1.71692
