37
Benzothiophene_H9_deriv1_Int2_Sub16.log	Energy: -906535.1953137
C          0.28564        0.15255       -0.31538
C          0.98530       -0.71710        0.53782
C          1.05120        0.95671       -1.15912
C          2.39926       -0.77999        0.55248
S          0.30146       -1.80953        1.70989
C          2.46248        0.90920       -1.19533
H          0.54652        1.66011       -1.82887
C          3.12758        0.03579       -0.33561
C          2.88910       -1.70609        1.53290
C          1.87931       -2.31354        2.21486
C          3.23642        1.78475       -2.13590
O          4.49203       -0.02133       -0.31544
H          3.94817       -1.88777        1.71559
H          1.97368       -3.05515        3.00800
O         -1.76698        2.17808        0.16615
C         -1.09941        2.81735        0.97912
O         -0.01735        2.36914        1.54811
C         -1.48554        4.19928        1.38283
H         -2.45068        4.46596        0.94067
H         -1.53070        4.26128        2.47936
H         -0.70703        4.90132        1.04891
H          0.22701        1.50217        1.13797
Pd        -1.67192        0.17451       -0.32881
O         -3.75808       -0.56442       -0.53405
C         -3.23774       -1.67352       -0.79340
O         -1.96177       -1.77822       -0.79543
C         -4.05496       -2.88307       -1.11925
H         -5.11379       -2.69676       -0.90492
H         -3.93272       -3.12095       -2.18665
H         -3.68828       -3.74580       -0.54622
H          2.71278        2.73515       -2.31338
H          3.37026        1.30059       -3.11810
H          4.23604        2.00043       -1.73434
C          5.05178       -0.97697       -1.18577
H          4.69504       -1.99567       -0.95204
H          4.81144       -0.75823       -2.24122
H          6.14164       -0.93970       -1.05382
