42
Benzofuran_H13_deriv1_Int2_Sub4.log	Energy: -994358.8305559
C          0.31893        0.60286       -0.51956
C          1.71445        0.14276       -0.50802
C          0.35007        1.71572       -1.31455
C          2.40995        1.07553       -1.31146
C          2.46162       -0.91211        0.08862
Cl        -0.90874        2.76461       -1.77214
O          1.56915        2.02618       -1.79671
C          3.77109        1.05581       -1.57480
C          3.83263       -0.92544       -0.18013
C          1.83266       -2.00481        0.95752
C          4.48057        0.02241       -0.98577
H          4.23323        1.81516       -2.20660
H          4.44616       -1.71374        0.25290
H          5.55770       -0.06029       -1.14655
O         -1.57953        1.00589        1.78632
C         -0.82710        1.81500        2.33133
O          0.33483        2.15416        1.86162
C         -1.20249        2.47056        3.61621
H         -2.21478        2.17514        3.90955
H         -0.48088        2.17317        4.39158
H         -1.13224        3.56191        3.50605
H          0.48066        1.68247        0.99305
Pd        -1.42018       -0.12765        0.06778
O         -3.27747       -1.27894        0.01487
C         -2.86656       -1.74883       -1.07333
O         -1.73171       -1.35770       -1.51891
C         -3.64635       -2.75053       -1.85934
H         -3.06186       -3.67853       -1.94238
H         -4.60722       -2.95335       -1.37252
H         -3.80673       -2.37270       -2.87920
C          2.88376       -2.94150        1.56072
H          2.37812       -3.69596        2.18212
H          3.45079       -3.48228        0.78849
H          3.59702       -2.40327        2.20384
C          1.06642       -1.37410        2.12668
H          0.20651       -0.78835        1.77604
H          0.67357       -2.15884        2.79189
H          1.72144       -0.71527        2.71804
C          0.89339       -2.85443        0.08964
H          0.38255       -3.61107        0.70715
H          0.12679       -2.25136       -0.41465
H          1.46551       -3.37951       -0.69055
