33
Benzo13dioxol_H9_Int2_Sub25.log	Energy: -842110.3403866
C         -0.38286       -0.36897        0.19687
C          0.55937        0.28426       -0.62981
C          0.02044       -1.41312        1.03972
C          1.86068       -0.16499       -0.56780
H          0.27821        1.12742       -1.26265
C          1.35604       -1.85153        1.09170
H         -0.71225       -1.89737        1.69008
C          2.25184       -1.20483        0.26938
O          2.94950        0.26787       -1.27450
H          1.67334       -2.65863        1.75345
O          3.58790       -1.44003        0.09789
C          4.05597       -0.41318       -0.74053
H          4.67763       -0.83191       -1.55006
C          4.91266        0.56201        0.07615
O         -3.04128       -1.56193        0.42885
C         -2.84020       -2.50136       -0.34114
O         -1.91540       -2.49043       -1.26094
C         -3.64358       -3.75316       -0.27636
H         -4.47087       -3.63417        0.43043
H         -4.02014       -4.00213       -1.27835
H         -2.99020       -4.57960        0.04150
H         -1.36376       -1.68041       -1.13081
Pd        -2.21616        0.32475        0.20445
O         -3.87313        1.81080        0.12764
C         -2.97300        2.66398       -0.03867
O         -1.75208        2.27768       -0.09218
C         -3.26935        4.12550       -0.14849
H         -4.32576        4.28144       -0.39740
H         -3.05602        4.60269        0.82033
H         -2.61638        4.59023       -0.89905
F          4.21239        1.09604        1.06977
F          5.35758        1.54058       -0.70593
F          5.96085       -0.07611        0.58925
