32
Benzoisoxazole_H8_Int2_Sub6.log	Energy: -642134.9708548
C         -0.57435       -0.68245        0.19005
C         -1.66089       -0.50756       -0.69020
C         -0.73991       -1.58865        1.24876
C         -2.85870       -1.20907       -0.51107
C         -1.94509        0.28297       -1.85231
C         -1.97230       -2.27689        1.39274
C          0.37466       -1.84867        2.22624
C         -3.04905       -2.11063        0.53366
O         -3.73500       -0.85867       -1.46692
H         -1.29905        0.98883       -2.37454
N         -3.15057        0.07065       -2.29311
H         -2.07192       -2.97559        2.22802
H         -3.98818       -2.64865        0.66585
O          0.12252        2.11654        0.01029
C         -0.74039        2.48298        0.80963
O         -1.32972        1.68945        1.65771
C         -1.20507        3.89718        0.85137
H         -1.31095        4.22919        1.89268
H         -0.51084        4.53962        0.30008
H         -2.20174        3.94714        0.38565
H         -1.06929        0.75403        1.46203
Pd         1.09122        0.29762       -0.11598
O          3.23614        0.69277       -0.53269
C          3.37337       -0.55141       -0.53209
O          2.34901       -1.28876       -0.30877
C          4.68675       -1.21120       -0.80526
H          5.49977       -0.47774       -0.75189
H          4.85231       -2.02989       -0.09189
H          4.66044       -1.65190       -1.81341
H          0.09658       -2.62410        2.95341
H          0.63917       -0.93870        2.78946
H          1.28401       -2.16743        1.69550
