49
Benzothiophene_H9_deriv1_Int2_Sub11.log	Energy: -981869.6275160
C         -0.61340        0.13967       -0.38338
C          0.15294       -0.61556        0.51451
C          0.09063        0.88000       -1.32795
C          1.57326       -0.63068        0.48460
S         -0.48622       -1.61518        1.78881
C          1.50029        0.88169       -1.40335
H         -0.46307        1.48868       -2.04906
C          2.26170        0.12900       -0.49601
C          2.08739       -1.47503        1.53549
C          1.10968       -2.04363        2.29174
C          2.14419        1.71588       -2.47943
C          3.77251        0.13774       -0.57202
H          3.14385       -1.65534        1.72353
H          1.24569       -2.71930        3.13585
O         -2.70454        2.11849        0.11935
C         -2.00532        2.83004        0.83976
O         -0.85796        2.46590        1.33646
C         -2.42830        4.21160        1.20762
H         -3.43317        4.41336        0.82336
H         -2.40257        4.32281        2.30098
H         -1.70887        4.93151        0.79005
H         -0.60470        1.58608        0.96005
Pd        -2.56794        0.10177       -0.31163
O         -4.63908       -0.70554       -0.39917
C         -4.09558       -1.80692       -0.64347
O         -2.81852       -1.87379       -0.69978
C         -4.88760       -3.05202       -0.88866
H         -5.94435       -2.88500       -0.64970
H         -4.78971       -3.33692       -1.94695
H         -4.47949       -3.87654       -0.28788
H          1.37978        2.22836       -3.07957
H          2.74717        1.10421       -3.16921
H          2.81141        2.48773       -2.06368
H          4.04994        0.79294       -1.41221
C          4.37256       -1.23464       -0.91235
H          3.91183       -1.61166       -1.83965
H          4.11730       -1.96745       -0.12977
C          5.88824       -1.15763       -1.05770
H          6.30028       -2.15867       -1.26448
H          6.13867       -0.53321       -1.93484
C          6.54066       -0.55681        0.18261
H          7.63248       -0.48882        0.04869
H          6.37563       -1.23192        1.04246
C          5.95771        0.81504        0.50435
H          6.21096        1.51455       -0.31329
H          6.41930        1.22695        1.41651
C          4.44244        0.75693        0.66370
H          4.19218        0.17503        1.56563
H          4.03118        1.76565        0.83184
