34
Benzofuran_H9_deriv1_Int2_Sub24.log	Energy: -967573.3531979
C          0.08115        0.36438        0.06843
C          1.21663       -0.33435       -0.35224
C          0.32323        1.62388        0.62676
C          2.52748        0.16043       -0.22963
O          1.23410       -1.58057       -0.89324
C          1.63115        2.12370        0.77010
H         -0.51460        2.24817        0.94311
C          2.74937        1.41410        0.35453
C          3.37102       -0.88660       -0.76071
C          2.53362       -1.89067       -1.14237
Cl         1.84556        3.68738        1.49581
H          3.75104        1.82080        0.49475
O          4.71603       -0.90498       -0.83452
H          2.72987       -2.86278       -1.58612
O         -1.35119       -2.19058        0.35658
C         -0.67164       -2.57291        1.30699
O         -0.02807       -1.76885        2.10821
C         -0.50651       -4.02027        1.61135
H         -1.27799       -4.60299        1.09755
H          0.48611       -4.33013        1.24882
H         -0.53370       -4.18960        2.69553
H         -0.08816       -0.85057        1.75321
Pd        -1.77065       -0.24575       -0.16617
O         -3.92964       -0.14563       -0.61493
C         -3.73737        1.07269       -0.83456
O         -2.55751        1.54804       -0.68163
C         -4.82927        1.98234       -1.29585
H         -4.72767        2.96759       -0.82202
H         -4.73547        2.12305       -2.38362
H         -5.80878        1.54061       -1.07727
C          5.27756        0.01708       -1.74287
H          4.95458       -0.19573       -2.77679
H          5.00396        1.05761       -1.49902
H          6.36807       -0.08904       -1.67618
