46
Benzofuran_H9_deriv1_Int2_Sub19.log	Energy: -1042914.7086243
C         -0.83809        0.37784        0.11209
C          0.32702       -0.27873       -0.29410
C         -0.64583        1.62099        0.72387
C          1.62783        0.22840       -0.10831
O          0.38783       -1.49502       -0.89471
C          0.64479        2.14423        0.91911
H         -1.50746        2.21424        1.03580
C          1.79147        1.47405        0.51470
C          2.52258       -0.77216       -0.65561
C          1.70321       -1.76209       -1.10113
Cl         0.80407        3.69231        1.69302
H          2.77262        1.91637        0.68584
C          4.01712       -0.74723       -0.72958
H          1.92097       -2.70829       -1.59213
O         -2.22298       -2.21747        0.25602
C         -1.56331       -2.62201        1.21091
O         -0.95043       -1.83747        2.05434
C         -1.38836       -4.07687        1.47291
H         -2.13669       -4.65149        0.91744
H         -0.38149       -4.36334        1.13123
H         -1.44646       -4.28189        2.54975
H         -1.01155       -0.90836        1.72684
Pd        -2.66553       -0.26321       -0.21385
O         -4.80982       -0.19262       -0.74075
C         -4.63628        1.03660       -0.90902
O         -3.47430        1.53111       -0.69416
C         -5.73022        1.93952       -1.37932
H         -5.66813        2.90903       -0.86770
H         -5.59905        2.12114       -2.45711
H         -6.70723        1.47002       -1.21383
H          4.33354       -1.68657       -1.22036
C          4.66694       -0.72207        0.66077
H          4.31528       -1.58674        1.24609
H          4.32483        0.17593        1.20428
C          6.18858       -0.71116        0.57241
H          6.62549       -0.66044        1.58278
H          6.53320       -1.66542        0.13371
C          6.69154        0.44402       -0.28638
H          7.79029        0.41486       -0.36505
H          6.44117        1.39977        0.20917
C          6.05738        0.41825       -1.67278
H          6.39662       -0.48648       -2.20960
H          6.40013        1.27814       -2.27050
C          4.53531        0.41118       -1.59285
H          4.18595        1.36662       -1.16409
H          4.09076        0.34664       -2.59864
