29
Benzoisoxazole_H9_Int2_Sub26.log	Energy: -905800.6019374
C         -0.09997       -0.54691        0.16927
C         -1.24486        0.02883       -0.37918
C         -0.20416       -1.72689        0.95204
C         -2.47550       -0.58582       -0.11365
H         -1.20251        0.92368       -1.00446
C         -1.42109       -2.33879        1.22582
H          0.71457       -2.18010        1.33279
C         -2.55047       -1.73580        0.67402
C         -3.85257       -0.36522       -0.43970
H         -1.49310       -3.24550        1.82806
O         -3.83425       -2.12673        0.78575
Cl        -4.46964        0.90531       -1.39315
N         -4.63534       -1.26106        0.08550
O          1.01670        2.10855       -0.23805
C          0.45962        2.66005        0.71178
O          0.07890        2.02228        1.78483
C          0.15311        4.11582        0.70522
H          0.65260        4.60243       -0.13854
H         -0.93685        4.24462        0.61962
H          0.46207        4.56668        1.65816
H          0.21592        1.05778        1.63027
Pd         1.69495        0.15365       -0.19067
O          3.88408        0.15525       -0.57004
C          3.81755       -1.08571       -0.42392
O          2.68361       -1.61687       -0.14710
C          5.00756       -1.97455       -0.59003
H          4.96891       -2.43213       -1.59053
H          5.93210       -1.39177       -0.50138
H          4.98243       -2.78622        0.14895
