35
Benzofuran_H9_deriv1_Int2_Sub15.log	Energy: -955122.5320508
C         -0.14137       -0.15085       -0.01706
C         -1.04370        0.72809       -0.62438
C         -0.74030       -1.27539        0.55950
C         -2.44477        0.56875       -0.66058
O         -0.69853        1.88812       -1.23943
C         -2.12383       -1.46687        0.54461
H         -0.12020       -2.04756        1.01916
C         -3.03459       -0.57269       -0.05847
C         -2.93565        1.73447       -1.36125
C         -1.84224        2.47165       -1.67410
Cl        -2.77152       -2.90277        1.30305
N         -4.37127       -0.82962       -0.02593
H         -3.95862        1.99928       -1.60705
H         -1.72276        3.41406       -2.20264
O          1.83803        2.00500        0.31532
C          1.16551        2.58577        1.16602
O          0.22855        2.01240        1.86590
C          1.36352        4.03439        1.45145
H          2.31562        4.37452        1.03120
H          0.53688        4.59068        0.98294
H          1.31766        4.21902        2.53274
H          0.07903        1.09842        1.50348
Pd         1.82002       -0.01033       -0.10267
O          3.92627       -0.64996       -0.34150
C          3.46045       -1.79722       -0.53002
O          2.19317       -1.96947       -0.47073
C          4.33361       -2.96784       -0.85137
H          3.95830       -3.86998       -0.35045
H          4.29719       -3.14835       -1.93669
H          5.37001       -2.75968       -0.55986
H         -4.62108       -1.71069        0.40249
C         -5.39524       -0.08442       -0.69229
H         -6.35556       -0.59369       -0.53811
H         -5.22982       -0.01107       -1.78218
H         -5.50088        0.93874       -0.29164
