29
Benzooxazole_H10_Int2_Sub10.log	Energy: -905826.7388301
C         -0.53746        0.01556       -0.48945
C         -1.11451        0.45633       -1.70609
C         -1.36163       -0.55245        0.49050
C         -2.47169        0.34101       -1.98658
H         -0.45667        0.89953       -2.45833
C         -2.71949       -0.66382        0.20470
Cl        -0.75495       -1.09521        2.01546
C         -3.28175       -0.23272       -1.00313
H         -2.89578        0.68153       -2.93228
O         -3.71936       -1.16333        0.96868
N         -4.64542       -0.48308       -0.95619
C         -4.82688       -1.01728        0.19847
H         -5.76081       -1.36866        0.63572
O          1.51679        2.12066       -0.08767
C          0.72718        2.93990        0.37990
O         -0.49365        2.65321        0.73290
C          1.11397        4.36498        0.58022
H          0.46257        5.00633       -0.03147
H          0.94915        4.64216        1.63139
H          2.16281        4.51296        0.30448
H         -0.68286        1.71167        0.49635
Pd         1.41165        0.06426       -0.24447
O          3.48292       -0.65682       -0.08876
C          3.00199       -1.80733       -0.22417
O          1.73747       -1.93387       -0.36973
C          3.85295       -3.03576       -0.21095
H          3.65582       -3.63072       -1.11393
H          4.91353       -2.76445       -0.15536
H          3.57875       -3.65546        0.65549
