39
Benzene_H10_Int2_Sub43.log	Energy: -611076.2723122
C         -0.69963        0.32410       -0.80327
C         -1.61780        1.11175       -0.06240
C         -0.96327        0.02466       -2.15038
C         -2.77556        1.54154       -0.73306
C         -1.37070        1.53538        1.39460
C         -2.11739        0.47536       -2.78891
H         -0.24517       -0.57802       -2.71423
C         -3.03021        1.23579       -2.06779
H         -3.50973        2.14281       -0.19720
H         -2.29642        0.22926       -3.83838
H         -3.94698        1.59726       -2.53959
O          0.23194       -2.25696        0.36645
C         -0.88877       -2.75907        0.39815
O         -1.97437       -2.15574        0.00304
C         -1.10627       -4.13730        0.92517
H         -0.14436       -4.63070        1.09754
H         -1.66354       -4.06873        1.87190
H         -1.72382       -4.71384        0.22287
H         -1.74739       -1.24943       -0.32689
Pd         1.01063       -0.40016       -0.16029
O          3.20652       -0.52433        0.24122
C          3.26011        0.64587       -0.19825
O          2.18472        1.21659       -0.59637
C          4.54146        1.41630       -0.26475
H          4.47525        2.28497        0.40695
H          5.38509        0.78130        0.02955
H          4.68903        1.80238       -1.28327
C         -2.58429        2.24462        2.00296
H         -2.36424        2.50515        3.04923
H         -2.82412        3.18209        1.47954
H         -3.48129        1.60570        2.00023
C         -1.06879        0.31870        2.27909
H         -0.14533       -0.19405        1.96807
H         -0.93069        0.63746        3.32390
H         -1.89789       -0.40641        2.25295
C         -0.18583        2.51222        1.42701
H          0.02705        2.81740        2.46437
H          0.72379        2.07009        0.99768
H         -0.41706        3.41708        0.84425
