41
Benzoisoxazole_H10_Int2_Sub28.log	Energy: -716086.5012535
C         -0.36565       -0.09789       -0.12572
C          0.28112       -1.07091        0.67625
C          0.37998        0.79172       -0.90198
C          1.66469       -1.16312        0.73421
H         -0.33121       -1.77748        1.24102
C          1.76772        0.67212       -0.83280
H         -0.08268        1.54338       -1.54438
C          2.42629       -0.27040       -0.03624
H          2.13701       -1.92177        1.36111
O          2.67171        1.41839       -1.48681
C          3.81966        0.00605       -0.29644
N          3.93351        0.99157       -1.14243
C          5.04131       -0.67892        0.26619
O         -2.39844        1.96659       -0.29919
C         -1.90755        2.72861        0.53416
O         -1.13418        2.32671        1.50535
C         -2.14492        4.19694        0.48993
H         -2.39793        4.56554        1.49330
H         -1.21128        4.69322        0.18328
H         -2.94046        4.42869       -0.22539
H         -0.93789        1.37043        1.36590
Pd        -2.32149       -0.09806       -0.16733
O         -4.40145       -0.88984       -0.16859
C         -3.87242       -2.01819       -0.05420
O         -2.59555       -2.10186        0.01721
C         -4.67819       -3.27746       -0.02773
H         -5.72133       -3.05567        0.22719
H         -4.64554       -3.73801       -1.02708
H         -4.24356       -3.99249        0.68317
C          6.31238       -0.04077       -0.29347
H          7.19635       -0.54803        0.12245
H          6.34670       -0.11752       -1.38927
H          6.36759        1.02679       -0.03797
C          5.02746       -0.53732        1.79447
H          4.12971       -0.98841        2.24213
H          5.90800       -1.03732        2.22710
H          5.05651        0.52225        2.09028
C          4.99856       -2.16272       -0.12455
H          5.87905       -2.68459        0.28159
H          4.09996       -2.66543        0.26218
H          5.00580       -2.28012       -1.21859
