35
Benzo13dioxol_H8_Int2_Sub23.log	Energy: -690081.2528603
C          0.04141       -0.75012        0.67642
C          1.27985       -0.70143        0.05606
C         -0.06213       -1.65971        1.75534
C          2.36833       -1.47420        0.46621
O          1.65345        0.05660       -1.01215
C          1.01941       -2.43886        2.16343
H         -1.01185       -1.74691        2.28937
C          2.26834       -2.35575        1.52582
O          3.43033       -1.20272       -0.32382
C          3.05076       -0.06535       -1.15082
H          0.89676       -3.12533        3.00447
H          3.12186       -2.95656        1.84221
H          3.32156       -0.33790       -2.18476
N          3.66701        1.13870       -0.79280
O         -2.72101       -0.91253       -0.37183
C         -2.54374       -2.00231       -0.91602
O         -1.37726       -2.55910       -1.06755
C         -3.68702       -2.79456       -1.45252
H         -4.61772       -2.22655       -1.35614
H         -3.49485       -3.04652       -2.50518
H         -3.75973       -3.74236       -0.89884
H         -0.69683       -2.01034       -0.59665
Pd        -1.35694        0.53185        0.18467
O         -2.33481        2.49752       -0.11180
C         -1.25531        2.99014        0.29002
O         -0.30046        2.20719        0.62567
C         -1.03618        4.46724        0.37737
H         -0.65153        4.72774        1.37338
H         -0.27185        4.76081       -0.35753
H         -1.97023        5.00376        0.17406
H          3.31966        1.47753        0.10143
C          5.10253        1.19110       -0.92426
H          5.45429        2.21427       -0.73034
H          5.38594        0.93987       -1.95912
H          5.64529        0.49978       -0.25211
