29
Benzoisoxazole_H8_Int2_Sub10.log	Energy: -905801.9054252
C          0.46239        0.79951        0.56863
C          1.58760        0.73071       -0.27820
C          0.61199        1.58969        1.71154
C          2.77091        1.41401        0.02654
C          1.93546        0.09707       -1.51858
C          1.81765        2.26728        2.00197
H         -0.22957        1.70544        2.39903
C          2.92620        2.19537        1.17104
O          3.68753        1.18846       -0.93049
Cl         0.93945       -0.90016       -2.47643
N          3.15240        0.36591       -1.88979
H          1.87368        2.86973        2.91208
H          3.86061        2.71377        1.38724
O         -0.35454       -1.99936        0.36394
C          0.52657       -2.41858        1.11170
O          1.19256       -1.67036        1.94756
C          0.93339       -3.85122        1.09716
H          1.18566       -4.19100        2.10959
H          0.13799       -4.46179        0.65683
H          1.83842       -3.94143        0.47568
H          0.93910       -0.72508        1.81980
Pd        -1.21058       -0.12875        0.17909
O         -3.34117       -0.43930       -0.30472
C         -3.42819        0.81065       -0.31936
O         -2.38529        1.50580       -0.05574
C         -4.69923        1.51750       -0.66273
H         -5.55267        0.83775       -0.55348
H         -4.82192        2.40711       -0.03097
H         -4.64310        1.85554       -1.70886
