34
Benzo13dioxol_H9_Int2_Sub24.log	Energy: -702527.6816482
C         -0.23621       -0.16596        0.06346
C         -0.72662       -1.24756       -0.69853
C         -1.11275        0.66839        0.76080
C         -2.09688       -1.41355       -0.71087
H         -0.06373       -1.93769       -1.22094
C         -2.51167        0.48581        0.73791
H         -0.74405        1.49405        1.37360
C         -2.98116       -0.58044       -0.02302
O         -2.81959       -2.34429       -1.39541
O         -3.25244        1.36719        1.43504
O         -4.26607       -0.97763       -0.29650
C         -4.12944       -2.25475       -0.88236
H         -4.85920       -2.36731       -1.69712
H         -4.28124       -3.03882       -0.11108
O          1.56031        2.12580        0.10984
C          0.98484        2.75700       -0.77673
O          0.21561        2.20434       -1.67280
C          1.11057        4.23670       -0.88848
H          1.91399        4.59710       -0.23806
H          1.29416        4.51878       -1.93411
H          0.15475        4.69251       -0.58763
H          0.07868        1.25794       -1.42095
Pd         1.70450        0.06182        0.19221
O          3.86024       -0.49306        0.35987
C          3.45711       -1.67737        0.33558
O          2.20257       -1.90866        0.22171
C          4.39173       -2.83875        0.46470
H          5.41926       -2.52620        0.24366
H          4.34713       -3.21503        1.49825
H          4.07822       -3.65444       -0.20021
C         -4.61730        1.09999        1.65021
H         -5.18906        1.09597        0.70954
H         -4.76444        0.13010        2.15347
H         -4.98993        1.90245        2.29982
