33
Benzoisoxazole_H11_deriv1_Int2_Sub8.log	Energy: -977618.1477512
C          0.56689        0.10408       -0.10746
C          1.17145       -0.78140       -1.01520
C          1.43378        1.08102        0.41665
C          2.51179       -0.76414       -1.40241
O          0.55442       -1.81808       -1.61619
C          2.81668        1.11207        0.02441
O          1.12166        2.01959        1.31295
C          3.36083        0.21891       -0.87365
C          2.60148       -1.88236       -2.28862
N          1.45796       -2.49266       -2.40386
Cl         3.82884        2.33126        0.71756
H          4.41675        0.28710       -1.13634
H          3.46329       -2.26021       -2.83916
O         -1.39512       -1.88917        0.90458
C         -0.54219       -2.48761        1.55966
O          0.63704       -2.00567        1.82670
C         -0.79975       -3.85498        2.09026
H         -0.36455       -3.96547        3.09182
H         -1.87534       -4.06011        2.09673
H         -0.29933       -4.57632        1.42520
H          0.75058       -1.15154        1.33115
Pd        -1.41132       -0.03386        0.02376
O         -3.52868        0.41256       -0.27242
C         -3.15352        1.47658       -0.81974
O         -1.89732        1.72575       -0.87280
C         -4.11408        2.44162       -1.43116
H         -3.78616        3.47294       -1.24575
H         -4.12447        2.28454       -2.52070
H         -5.12371        2.27279       -1.03803
C         -0.16665        2.15322        1.85673
H         -0.89576        2.46452        1.09441
H         -0.50923        1.21537        2.32768
H         -0.08402        2.92897        2.62895
