33
Benzofuran_H13_deriv1_Int2_Sub6.log	Energy: -920414.2056730
C          0.64262        0.18119       -0.33818
C          1.77282       -0.62252        0.10774
C          1.20890        1.06664       -1.21376
C          2.90278       -0.11030       -0.55525
C          1.92811       -1.69460        1.01120
Cl         0.50109        2.32611       -2.11340
O          2.54639        0.92555       -1.36272
C          4.19245       -0.59649       -0.39007
C          3.22232       -2.18644        1.18059
C          0.75943       -2.28074        1.74029
C          4.33010       -1.65637        0.49887
H          5.03670       -0.16469       -0.92884
H          3.37811       -3.01884        1.87182
H          5.31931       -2.08547        0.67366
O         -1.60221        1.79152        0.72669
C         -0.85598        2.53550        1.36522
O          0.40002        2.28482        1.58583
C         -1.35189        3.82232        1.92855
H         -2.44633        3.84553        1.91175
H         -0.96733        3.96080        2.94775
H         -0.95703        4.64397        1.31110
H          0.65727        1.48404        1.05060
Pd        -1.27909       -0.08962       -0.03242
O         -3.24314       -1.05737       -0.01680
C         -2.66925       -2.05559       -0.51304
O         -1.40876       -1.99102       -0.73269
C         -3.39671       -3.31949       -0.83484
H         -3.08282       -4.10298       -0.12868
H         -4.47916       -3.16626       -0.75460
H         -3.12639       -3.65908       -1.84413
H          0.04325       -2.72375        1.03112
H          0.20922       -1.50697        2.30075
H          1.08224       -3.05433        2.45050
