29
Benzooxazole_H10_Int2_Sub2.log	Energy: -905828.1489505
C          0.58527       -0.18566        0.08405
C          1.30284        0.52991        1.07316
C          1.28723       -1.05313       -0.76706
C          2.67939        0.42864        1.25164
Cl         0.43330        1.60453        2.13651
C          2.65981       -1.14392       -0.58712
H          0.76949       -1.64823       -1.52135
C          3.36364       -0.43057        0.39126
H          3.19491        0.99127        2.03012
O          3.56702       -1.89438       -1.26683
N          4.70753       -0.75824        0.29471
C          4.75052       -1.60180       -0.67504
H          5.62554       -2.11060       -1.07855
O         -1.49963        1.89828       -0.41587
C         -0.71480        2.66257       -0.97245
O          0.44623        2.29740       -1.44140
C         -1.02574        4.10985       -1.13234
H         -0.50111        4.65542       -0.33207
H         -0.65172        4.48180       -2.09461
H         -2.10335        4.27592       -1.03058
H          0.61330        1.35830       -1.18588
Pd        -1.37475       -0.13340       -0.07368
O         -3.44581       -0.88136       -0.12804
C         -2.95046       -2.01396        0.07773
O         -1.67781       -2.12317        0.17128
C         -3.79584       -3.23445        0.24663
H         -3.88447       -3.45601        1.32128
H         -4.79747       -3.06201       -0.16493
H         -3.31683       -4.09784       -0.23369
