35
Benzofuran_H13_deriv1_Int2_Sub15.log	Energy: -955122.4639660
C         -0.19426        0.15429        0.21862
C         -1.27811       -0.67470       -0.28816
C         -0.83610        1.12367        0.93971
C         -2.45804       -0.09070        0.17903
C         -1.34962       -1.82918       -1.08619
Cl        -0.21910        2.44870        1.81685
O         -2.18688        1.01507        0.93348
C         -3.75068       -0.56291       -0.09332
C         -2.61543       -2.31792       -1.37500
H         -0.44236       -2.32028       -1.43856
C         -3.79185       -1.70728       -0.90403
N         -4.84830        0.06743        0.42781
H         -2.71460       -3.21478       -1.99160
H         -4.75745       -2.13885       -1.17056
O          2.23815        1.69424       -0.40748
C          1.64691        2.47957       -1.14987
O          0.47708        2.24348       -1.66703
C          2.23427        3.80389       -1.49416
H          3.30698        3.81004       -1.27476
H          2.04071        4.04483       -2.54744
H          1.73204        4.56630       -0.87825
H          0.10954        1.42187       -1.24239
Pd         1.72107       -0.23834        0.06209
O          3.59214       -1.37744        0.06222
C          2.88986       -2.37278        0.36186
O          1.62421       -2.21940        0.47316
C          3.48360       -3.71902        0.61924
H          2.83470       -4.50368        0.20837
H          4.49109       -3.77751        0.19038
H          3.54828       -3.87417        1.70714
H         -4.68349        0.97324        0.84179
C         -6.18645       -0.26847        0.04636
H         -6.88997        0.38374        0.58051
H         -6.43248       -1.30931        0.31858
H         -6.37137       -0.15609       -1.04010
