49
Benzothiophene_H13_deriv1_Int2_Sub27.log	Energy: -1106365.1794483
C          1.09698       -0.90755       -0.67614
C          1.96999       -0.05152        0.12347
C          1.79869       -1.53344       -1.67396
C          3.31223       -0.11293       -0.34612
C          1.71784        0.79454        1.23853
H          1.40627       -2.25242       -2.39439
S          3.49131       -1.16296       -1.71410
C          4.36263        0.60005        0.23925
C          2.77033        1.49076        1.81809
C          0.32830        1.01485        1.80297
C          4.08157        1.39840        1.33167
H          5.37634        0.52006       -0.15894
H          2.55953        2.12970        2.67505
H          4.87980        1.96301        1.81805
O         -1.62081       -0.27923       -1.85255
C         -1.17041        0.50777       -2.68519
O          0.09526        0.77625       -2.81910
C         -2.07665        1.26171       -3.59741
H         -3.04417        0.75303       -3.66735
H         -2.23441        2.26486       -3.17037
H         -1.61560        1.38504       -4.58540
H          0.62310        0.20905       -2.18984
Pd        -0.77193       -1.45426       -0.36962
O         -2.47451       -2.50665        0.50995
C         -1.63465       -3.07672        1.25162
O         -0.39526       -2.81845        1.08782
C         -2.04562       -4.01354        2.33989
H         -1.30524       -4.81620        2.45176
H         -2.08084       -3.45235        3.28643
H         -3.04212       -4.42274        2.13395
F          0.41176        1.75260        2.94911
F         -0.20136       -0.17828        2.18908
C         -0.62267        1.72263        0.84622
H         -0.58527        1.13799       -0.08600
C         -0.15262        3.14221        0.53407
H          0.87707        3.12522        0.14280
H         -0.12457        3.71991        1.47373
C         -1.08636        3.82326       -0.45924
H         -0.75360        4.85760       -0.64180
H         -1.01036        3.30353       -1.43199
C         -2.53299        3.80414        0.02275
H         -3.19649        4.26120       -0.73005
H         -2.61540        4.43198        0.92817
C         -2.99451        2.38920        0.35442
H         -3.02821        1.78283       -0.56840
H         -4.02332        2.40222        0.74789
C         -2.06427        1.70670        1.35084
H         -2.10705        2.22367        2.32497
H         -2.38537        0.66863        1.52299
