27
Benzene_H10_Int2_Sub157.log	Energy: -574722.9120069
C          0.89877       -0.43661       -0.11872
C          1.27700       -1.46126        0.76169
C          1.86836        0.10814       -0.97444
C          2.59416       -1.91773        0.80434
H          0.52611       -1.92461        1.40655
C          3.18558       -0.34958       -0.94838
H          1.59656        0.89669       -1.68156
C          3.53124       -1.35443       -0.05315
H          2.90244       -2.71330        1.48577
H          3.94832        0.05934       -1.61422
F          4.79094       -1.79015       -0.01929
O         -0.49225        2.09707       -0.46494
C          0.21769        2.74642        0.30335
O          0.91500        2.20822        1.26532
C          0.34853        4.22506        0.18812
H         -0.35112        4.60823       -0.56139
H          0.16258        4.68886        1.16698
H          1.38238        4.47031       -0.09798
H          0.85772        1.22548        1.17485
Pd        -0.98256        0.10361       -0.19031
O         -3.20368       -0.08828       -0.16294
C         -2.99993       -1.30558        0.04295
O         -1.79410       -1.72853        0.13820
C         -4.11787       -2.29313        0.15307
H         -5.06095       -1.77700        0.36878
H         -4.21365       -2.82623       -0.80529
H         -3.89220       -3.03826        0.92734
