32
Benzooxazole_H10_Int2_Sub22.log	Energy: -642160.5089025
C          0.48231       -0.15807        0.15897
C          1.30624        0.67211        0.95584
C          1.03300       -1.18299       -0.61986
C          2.69404        0.53392        1.01883
H          0.83885        1.45404        1.56174
C          2.41541       -1.30191       -0.55850
H          0.41396       -1.86179       -1.20849
C          3.23978       -0.48573        0.22398
C          3.56634        1.39717        1.87291
O          3.22454       -2.18806       -1.20075
N          4.55628       -0.88769        0.04643
C          4.47250       -1.86770       -0.78205
H          5.28329       -2.47185       -1.18811
O         -1.34774        2.10481        0.16732
C         -0.73845        2.76409       -0.67516
O          0.07325        2.24017       -1.55131
C         -0.87155        4.24498       -0.75541
H          0.08505        4.70265       -0.46096
H         -1.07047        4.54380       -1.79394
H         -1.67127        4.58826       -0.09148
H          0.19251        1.28384       -1.33219
Pd        -1.46587        0.03628        0.17885
O         -3.61571       -0.55721        0.20127
C         -3.19161       -1.73371        0.16044
O         -1.92791       -1.94003        0.11151
C         -4.11046       -2.91347        0.19640
H         -4.12277       -3.32028        1.21923
H         -5.12802       -2.61116       -0.07840
H         -3.74172       -3.70316       -0.47149
H          4.34260        1.89151        1.26864
H          4.09594        0.79285        2.62599
H          2.98116        2.16653        2.39492
