45
Benzothiazole_H11_Int2_Sub11.log	Energy: -967286.2456530
C          0.30735        0.42112       -0.03035
C          0.59887        1.73201        0.37731
C         -1.03091        0.12726       -0.29374
C         -0.41767        2.70774        0.53205
S          2.13375        2.44109        0.78240
C         -2.06600        1.07870       -0.15230
H         -1.29082       -0.88631       -0.61308
C         -1.75057        2.36666        0.26310
N          0.02002        3.94133        0.95848
C          1.29831        3.93175        1.12794
C         -3.49689        0.68527       -0.42923
H         -2.52467        3.12602        0.39239
H          1.86916        4.80386        1.45941
O          0.67124       -2.32048        0.86131
C          0.09739       -2.17446        1.94036
O         -0.11353       -1.01668        2.50094
C         -0.43347       -3.33901        2.70260
H         -0.05025       -4.27339        2.28014
H         -0.16372       -3.24616        3.76335
H         -1.53266       -3.32515        2.64117
H          0.13350       -0.30595        1.86143
Pd         1.72101       -0.91475       -0.23649
O          3.63821       -1.83916       -0.87235
C          3.87663       -0.74051       -1.42331
O          3.01459        0.20248       -1.32943
C          5.12397       -0.49461       -2.21008
H          4.87648       -0.51010       -3.28241
H          5.52475        0.50122       -1.97762
H          5.86643       -1.27345       -1.99992
H         -4.12148        1.57648       -0.23736
C         -3.98678       -0.42050        0.51499
H         -3.84835       -0.10071        1.56069
H         -3.35385       -1.31631        0.37707
C         -5.44166       -0.78916        0.24753
H         -5.75739       -1.60381        0.91955
H         -6.08395        0.07696        0.48943
C         -5.65893       -1.18339       -1.20939
H         -6.72181       -1.40997       -1.39208
H         -5.10247       -2.11529       -1.41895
C         -5.17626       -0.09036       -2.15674
H         -5.80776        0.80725       -2.02654
H         -5.30151       -0.40591       -3.20510
C         -3.72134        0.27963       -1.89098
H         -3.07424       -0.58360       -2.12925
H         -3.39838        1.09790       -2.55414
