53
Carbazole_H7_Int2_Sub19.log	Energy: -838486.0414013
C          0.64289       -0.33618       -0.13473
C          0.04111        0.89353        0.21310
C         -0.15192       -1.44495       -0.43101
C         -1.34168        1.05954        0.29662
H          0.69261        1.74924        0.40015
C         -1.54425       -1.31645       -0.36157
H          0.29761       -2.40080       -0.71338
C         -2.11648       -0.07390        0.00398
C         -2.01089        2.37157        0.62581
C         -2.64441       -2.22993       -0.58303
N         -3.49062       -0.20848        0.00907
C         -3.83459       -1.49572       -0.33903
C         -2.73114       -3.57410       -0.95842
H         -4.14539        0.52488        0.23389
C         -5.09559       -2.08230       -0.46264
C         -3.98487       -4.16217       -1.08249
H         -1.82478       -4.15204       -1.15472
C         -5.15217       -3.42099       -0.83603
H         -6.00749       -1.51126       -0.27407
H         -4.06660       -5.21076       -1.37660
H         -6.12646       -3.90433       -0.94064
O          2.69485       -2.27492        0.57979
C          2.20284       -2.57860        1.66685
O          1.35938       -1.82400        2.31377
C          2.52892       -3.86770        2.33861
H          3.34780       -4.37029        1.81408
H          2.79340       -3.68171        3.38878
H          1.63181       -4.50525        2.33564
H          1.09729       -1.07471        1.72038
Pd         2.59507       -0.38959       -0.27831
O          4.67543        0.30503       -0.76106
C          4.12491        1.35821       -1.14969
O          2.85241        1.47342       -1.05919
C          4.90378        2.48760       -1.74937
H          4.80240        2.44458       -2.84468
H          4.49585        3.45076       -1.41508
H          5.96477        2.39969       -1.48671
H         -2.87429        2.14252        1.28399
C         -2.56984        3.04316       -0.63984
H         -3.21778        2.34135       -1.19004
H         -1.72192        3.26188       -1.31243
C         -3.32299        4.32810       -0.31469
H         -3.67982        4.80312       -1.24287
H         -4.22648        4.08080        0.27304
C         -2.45844        5.29757        0.48369
H         -3.03591        6.19711        0.75173
H         -1.62271        5.64223       -0.15173
C         -1.89158        4.63438        1.73436
H         -2.71896        4.39168        2.42606
H         -1.23312        5.33331        2.27476
C         -1.13099        3.35797        1.39229
H         -0.25599        3.62036        0.77252
H         -0.73705        2.88019        2.30380
