53
Carbazole_H8_Int2_Sub19.log	Energy: -838485.8390044
C          0.86821       -0.43539       -0.27445
C          0.05858        0.62853        0.17272
C          0.29044       -1.62904       -0.71033
C         -1.33600        0.54388        0.21076
H          0.54702        1.55561        0.47661
C         -1.10286       -1.71627       -0.68902
H          0.90057       -2.46674       -1.05784
C         -1.92979       -0.65588       -0.23109
C         -2.19277        1.70297        0.65663
N         -1.90181       -2.77327       -1.06039
C         -3.29874       -1.12985       -0.34500
C         -3.22490       -2.45095       -0.86716
H         -1.56648       -3.64665       -1.43771
C         -4.56499       -0.59126       -0.07366
C         -4.36269       -3.22055       -1.11205
C         -5.70194       -1.35565       -0.31335
H         -4.67072        0.42017        0.31953
C         -5.60134       -2.65665       -0.82738
H         -4.28272       -4.23262       -1.51533
H         -6.68734       -0.93516       -0.10176
H         -6.50903       -3.23652       -1.01031
O          3.11489       -1.99192        0.67528
C          2.57509       -2.35073        1.72181
O          1.55598       -1.74256        2.26086
C          3.05376       -3.54394        2.47567
H          3.95718       -3.94834        2.00829
H          3.25218       -3.26158        3.51940
H          2.25811       -4.30352        2.49022
H          1.22834       -1.05031        1.63403
Pd         2.80483       -0.18308       -0.28956
O          4.78463        0.79559       -0.66054
C          4.11665        1.73449       -1.14827
O          2.83877        1.65714       -1.15857
C          4.76496        2.94211       -1.75022
H          4.74816        2.84330       -2.84644
H          4.19888        3.84631       -1.48973
H          5.80595        3.02210       -1.41514
H         -3.02675        1.27769        1.24496
C         -2.80482        2.42725       -0.55341
H         -3.31674        1.70547       -1.20882
H         -1.97902        2.85312       -1.15037
C         -3.76033        3.53336       -0.12120
H         -4.15823        4.05736       -1.00534
H         -4.63214        3.07997        0.38625
C         -3.08698        4.52005        0.82636
H         -3.80895        5.27858        1.17016
H         -2.29968        5.06698        0.27650
C         -2.45578        3.80583        2.01680
H         -3.25218        3.35430        2.63617
H         -1.93295        4.52802        2.66451
C         -1.49220        2.71392        1.56396
H         -0.65642        3.18435        1.01734
H         -1.04986        2.19919        2.43245
