42
Carbazole_H7_Int2_Sub23.log	Energy: -750692.4732440
C          0.41150        0.22190        0.00652
C          0.17577        1.45844        0.64696
C         -0.65693       -0.52327       -0.49661
C         -1.11079        1.96558        0.84002
H          1.02994        2.06162        0.96838
C         -1.96107       -0.04201       -0.31179
H         -0.48850       -1.47035       -1.01545
C         -2.17396        1.17693        0.36934
N         -1.37009        3.18498        1.48576
C         -3.27508       -0.56332       -0.62631
N         -3.52958        1.40877        0.47276
C         -4.21656        0.36197       -0.10214
C         -3.73149       -1.71163       -1.28088
H         -3.93212        2.11422        1.07242
C         -5.59194        0.14775       -0.21161
C         -5.10035       -1.92613       -1.39524
H         -3.02006       -2.42941       -1.69649
C         -6.01752       -1.00545       -0.86232
H         -6.31029        0.86196        0.19701
H         -5.46990       -2.81870       -1.90468
H         -7.08867       -1.19629       -0.96270
O          1.82516       -2.32251        0.13548
C          1.24489       -2.73667        1.13932
O          0.62299       -1.96392        1.98498
C          1.19418       -4.18888        1.46794
H          1.85817       -4.75005        0.80273
H          1.47479       -4.34085        2.51940
H          0.15818       -4.54183        1.35208
H          0.58336       -1.05214        1.59929
Pd         2.27238       -0.33359       -0.24541
O          4.47232       -0.15113       -0.65674
C          4.24969        1.07504       -0.75656
O          3.06080        1.51577       -0.57433
C          5.32704        2.05143       -1.11430
H          5.23929        2.29829       -2.18352
H          5.20120        2.98268       -0.54623
H          6.31478        1.61179       -0.93120
H         -0.54668        3.50111        1.98810
C         -1.91138        4.25403        0.66519
H         -2.13814        5.12562        1.29695
H         -2.85128        3.93544        0.19088
H         -1.23228        4.57607       -0.14794
