37
Carbazole_H10_Int2_Sub26.log	Energy: -979654.6572366
C          0.13797        1.17841       -0.49259
C          0.47311        2.52653       -0.67517
C         -1.21256        0.79854       -0.66090
C         -0.49695        3.50155       -0.96584
H          1.52026        2.82740       -0.58920
C         -2.17588        1.81920       -0.91152
C         -1.96544       -0.44686       -0.58557
C         -1.83814        3.16498       -1.06817
H         -0.18857        4.54192       -1.09499
N         -3.42702        1.25531       -0.94164
C         -3.33970       -0.09967       -0.74547
C         -1.67643       -1.81837       -0.46854
H         -2.60346        3.91965       -1.26067
H         -4.28513        1.75899       -1.11016
C         -4.37826       -1.03066       -0.71608
C         -2.70199       -2.75945       -0.43284
Cl        -0.05681       -2.42616       -0.43707
C         -4.03982       -2.36538       -0.54343
H         -5.41737       -0.71789       -0.83583
H         -2.44018       -3.81377       -0.33704
H         -4.82327       -3.12578       -0.51438
O          0.44096       -0.33800        1.92263
C         -0.21655        0.43500        2.61307
O         -0.40385        1.69646        2.33102
C         -0.89996       -0.02680        3.85505
H         -1.95954       -0.20499        3.61282
H         -0.45126       -0.96314        4.20318
H         -0.85790        0.74905        4.63016
H         -0.03568        1.89360        1.43586
Pd         1.55125        0.02686        0.18340
O          3.51535       -1.00145        0.35991
C          3.78414       -0.48501       -0.74946
O          2.92563        0.27791       -1.31035
C          5.07381       -0.76023       -1.45826
H          4.89332       -1.51430       -2.23971
H          5.43805        0.15039       -1.95204
H          5.81939       -1.14897       -0.75430
