49
Carbazole_H8_Int2_Sub20.log	Energy: -789930.8066494
C         -0.63562        0.17173       -0.26440
C         -0.03006       -0.95424        0.32582
C          0.15563        1.17079       -0.82201
C          1.35437       -1.13602        0.40493
H         -0.68969       -1.72806        0.71545
C          1.53933        0.99777       -0.76744
H         -0.27785        2.05763       -1.29160
C          2.17774       -0.12345       -0.16040
C          1.91576       -2.39402        1.07160
N          2.49225        1.85442       -1.26033
C          3.61424        0.11683       -0.32007
C          3.74413        1.35486       -1.01193
H          2.29551        2.70953       -1.75797
C          4.80486       -0.54694        0.02515
C          4.97738        1.91371       -1.35083
C          6.03770        0.00318       -0.30738
H          4.78790       -1.49720        0.55414
C          6.12671        1.22349       -0.99059
H          5.03179        2.86565       -1.88401
H          6.95056       -0.52842       -0.03052
H          7.10638        1.63597       -1.24261
O         -2.58152        2.22090        0.36586
C         -2.00184        2.63090        1.37151
O         -1.11862        1.93834        2.03456
C         -2.26707        3.98898        1.92473
H         -3.07284        4.47398        1.36469
H         -2.53239        3.90495        2.98824
H         -1.34616        4.58790        1.86603
H         -0.91347        1.11448        1.52635
Pd        -2.58578        0.25925       -0.30578
O         -4.70302       -0.41267       -0.59167
C         -4.20503       -1.51582       -0.90859
O         -2.93277       -1.65942       -0.88767
C         -5.04835       -2.67451       -1.34075
H         -4.99724       -2.76034       -2.43697
H         -4.65552       -3.60815       -0.91648
H         -6.09185       -2.51812       -1.04255
C          0.81723       -3.32777        1.59012
H          1.28529       -4.20946        2.05437
H          0.19081       -2.84522        2.35522
H          0.16245       -3.68609        0.78210
C          2.71952       -3.19583        0.03442
H          3.47174       -2.59580       -0.49040
H          3.22992       -4.04584        0.51530
H          2.03864       -3.59827       -0.73075
C          2.75788       -1.98443        2.29124
H          3.27298       -2.86050        2.71719
H          3.51062       -1.22107        2.06272
H          2.10296       -1.56639        3.07104
