37
Carbazole_H7_Int2_Sub10.log	Energy: -979656.5675763
C         -0.35729       -0.45176        0.46808
C         -0.16251       -1.33451        1.55404
C          0.76781       -0.02746       -0.24541
C          1.09789       -1.77157        1.94594
H         -1.04038       -1.69684        2.09470
C          2.05895       -0.44272        0.10777
Cl         0.57313        1.05382       -1.59731
C          2.19803       -1.31960        1.21708
H          1.21699       -2.45303        2.79085
C          3.39341       -0.19607       -0.39727
N          3.53392       -1.59482        1.38948
C          4.27555       -0.93637        0.43454
C          3.92284        0.56133       -1.45008
H          3.91124       -2.20129        2.10207
C          5.65682       -0.93140        0.23383
C          5.29793        0.56787       -1.65140
H          3.25961        1.13311       -2.09917
C          6.15335       -0.17032       -0.81820
H          6.32448       -1.50573        0.87982
H          5.72031        1.15417       -2.47018
H          7.23068       -0.14839       -0.99887
O         -1.97337        2.03639        0.15151
C         -1.25432        2.68682        0.90695
O         -0.38911        2.15675        1.72453
C         -1.30041        4.17585        0.92615
H         -2.22643        4.52968        0.46104
H         -1.20090        4.54979        1.95330
H         -0.43983        4.54835        0.34861
H         -0.34048        1.18244        1.54919
Pd        -2.20342       -0.00616       -0.04897
O         -4.30357       -0.33423       -0.66476
C         -4.02267       -1.55487       -0.64627
O         -2.84335       -1.91613       -0.30403
C         -5.01260       -2.60433       -1.04032
H         -4.79735       -2.92299       -2.07179
H         -4.91186       -3.48446       -0.39156
H         -6.03116       -2.20036       -0.99792
