30
Cyclopentadiene_H5_Int2_Sub32.log	Energy: -560378.8016788
C          0.68434       -0.63046        0.23464
C          0.83808       -1.70792        1.27238
C          1.86186       -0.51818       -0.44238
H          0.59696       -1.33922        2.28675
H          0.09569       -2.50161        1.06811
C          2.25093       -2.16841        1.13027
H          2.05159        0.13590       -1.29541
C          2.83064       -1.46953        0.12412
H          2.73633       -2.92971        1.73894
O          4.10369       -1.62855       -0.28149
O         -0.31635        2.11417       -0.34553
C          0.58617        2.70499        0.24832
O          1.50744        2.10922        0.94745
C          0.69352        4.19184        0.20840
H          1.67222        4.47864       -0.20257
H         -0.11641        4.61335       -0.39537
H          0.64607        4.58242        1.23557
H          1.42347        1.12085        0.81775
Pd        -1.03813        0.18432       -0.12260
O         -3.27682        0.25924       -0.42241
C         -3.24290       -0.96773       -0.18824
O         -2.11849       -1.52696        0.07420
C         -4.47022       -1.82305       -0.22687
H         -4.46162       -2.41554       -1.15444
H         -4.46694       -2.52771        0.61563
H         -5.37010       -1.19701       -0.20799
C          4.56829       -0.82421       -1.32826
H          4.00552       -0.99300       -2.26361
H          4.52352        0.25083       -1.07669
H          5.61762       -1.09807       -1.49901
