26
Cyclopentadiene_H5_Int2_Sub18.log	Energy: -776885.5895824
C         -0.87444        0.12911        0.29095
C         -1.81590       -0.77855       -0.45659
C         -1.61284        0.88140        1.15760
H         -1.76113       -0.65705       -1.55246
H         -1.56332       -1.83476       -0.25650
C         -3.15647       -0.40285        0.08542
H         -1.22187        1.60065        1.88135
C         -3.03340        0.56151        1.02334
Cl        -4.60990       -1.12323       -0.47127
H         -3.84710        1.02076        1.58460
O          1.51678        1.89915        0.24148
C          0.94524        2.86015       -0.27584
O         -0.26786        2.81470       -0.74245
C          1.61932        4.18357       -0.40351
H          1.05266        4.93635        0.16388
H          2.64794        4.12141       -0.03442
H          1.60722        4.49532       -1.45795
H         -0.67337        1.93565       -0.49073
Pd         1.04794       -0.10845        0.14312
O          2.97713       -1.21722       -0.05058
C          2.26883       -2.24670       -0.09358
O          0.99308       -2.12912       -0.03105
C          2.85716       -3.61834       -0.18835
H          2.81407       -4.09188        0.80443
H          2.26708       -4.23740       -0.87726
H          3.90300       -3.56110       -0.51250
