38
Cyclopentadiene_H5_Int2_Sub20.log	Energy: -587164.7046451
C          0.34366        0.29047       -0.39398
C          1.42727       -0.44791        0.34294
C          0.94196        1.09324       -1.31883
H          1.36794       -0.30425        1.43629
H          1.29323       -1.53262        0.18245
C          2.71204        0.06655       -0.24736
H          0.43489        1.72168       -2.05533
C          2.39497        0.95957       -1.21722
C          4.08010       -0.37024        0.21989
H          3.10021        1.50693       -1.84390
O         -2.23546        1.76324       -0.14941
C         -1.73038        2.79678        0.29108
O         -0.47232        2.91823        0.59457
C         -2.55028        4.02360        0.50901
H         -2.17266        4.83147       -0.13487
H         -3.60266        3.81998        0.28699
H         -2.43384        4.35728        1.55021
H          0.01412        2.09302        0.29490
Pd        -1.52146       -0.18064       -0.14505
O         -3.28914       -1.57804        0.14091
C         -2.43472       -2.48815        0.10934
O         -1.19541       -2.18657       -0.03107
C         -2.80559       -3.93553        0.20410
H         -2.73616       -4.38654       -0.79757
H         -2.09819       -4.46613        0.85557
H         -3.83184       -4.04110        0.57527
C          4.19693       -1.89720        0.10261
H          5.19447       -2.23371        0.42740
H          3.45120       -2.40852        0.72998
H          4.04611       -2.22433       -0.93758
C          5.17380        0.28200       -0.62549
H          5.13836        1.37956       -0.54925
H          6.16774       -0.04651       -0.28430
H          5.07357        0.00946       -1.68718
C          4.27318        0.03879        1.68857
H          5.27174       -0.26189        2.04425
H          4.18079        1.12926        1.80845
H          3.52900       -0.44010        2.34296
