38
Cyclopentadiene_H5_deriv1_Int2_Sub4.log	Energy: -875485.2380270
C         -0.64006        0.38744       -0.57141
C         -0.70124        1.90151       -0.46478
C         -1.59352        0.02574       -1.47377
C         -0.71325        2.56280        0.94205
H          0.22704        2.24578       -0.96770
C         -1.85359        2.27409       -1.35612
Cl        -1.87835       -1.56818       -2.08369
C         -2.36150        1.17336       -1.94345
H         -2.21326        3.29346       -1.49735
H         -3.18390        1.11172       -2.65661
O         -0.12665       -2.22227        0.83809
C         -1.27380       -2.29537        1.27906
O         -2.14468       -1.33506        1.19847
C         -1.76671       -3.53846        1.93643
H         -2.44102       -4.05204        1.23363
H         -0.92652       -4.19578        2.18280
H         -2.35087       -3.28717        2.83158
H         -1.77091       -0.60327        0.62538
Pd         0.90913       -0.65587        0.00073
O          3.05993       -1.15356        0.23723
C          3.28380       -0.06737       -0.34221
O          2.29169        0.65930       -0.70497
C          4.66934        0.40614       -0.64441
H          4.85072        0.31240       -1.72584
H          4.76792        1.46888       -0.38417
H          5.40483       -0.19703       -0.09939
C         -1.97092        2.16147        1.71459
H         -2.02199        2.70126        2.67329
H         -2.88531        2.39287        1.14690
H         -1.97706        1.08699        1.94873
C          0.52677        2.15320        1.73721
H          1.45123        2.38741        1.18870
H          0.54924        2.68199        2.70329
H          0.53483        1.07149        1.94487
C         -0.68963        4.08514        0.76858
H         -0.61881        4.57766        1.75079
H          0.17849        4.40402        0.17031
H         -1.59927        4.46298        0.27886
