29
Cyclopentadiene_H5_Int2_Sub14.log	Energy: -513216.0842048
C          0.67480        1.09678       -0.11675
C          0.49046        2.16415       -1.16194
C          1.68667        1.47507        0.72219
H          0.55986        1.77604       -2.19464
H         -0.52660        2.58966       -1.07595
C          1.55454        3.16495       -0.84681
C          2.17841        0.77972        1.94840
C          2.23483        2.75297        0.24287
H          1.73893        4.07208       -1.42443
H          3.06723        3.27477        0.72104
O          0.76221       -1.88537        0.13134
C          1.89883       -1.96881       -0.33773
O          2.56868       -0.95755       -0.80069
C          2.61211       -3.27752       -0.39803
H          3.50482       -3.23069        0.24318
H          1.95108       -4.08503       -0.06744
H          2.95910       -3.45718       -1.42551
H          2.04970       -0.11207       -0.62165
Pd        -0.62111       -0.34695        0.04719
O         -2.69723       -1.26405        0.16326
C         -3.10206       -0.08770        0.05309
O         -2.25083        0.86561       -0.06126
C         -4.55782        0.26134        0.07543
H         -4.80434        0.69529        1.05648
H         -4.77694        1.02117       -0.68681
H         -5.16632       -0.63679       -0.08340
H          1.62955       -0.15573        2.12595
H          2.04203        1.41946        2.83547
H          3.25594        0.55379        1.88123
