29
Cyclopentadiene_H5_Int2_Sub30.log	Energy: -513215.6690082
C          0.86785       -0.73021        0.07744
C          1.01509       -1.83287        1.09094
C          1.99238       -0.71427       -0.69188
H          0.90171       -1.47014        2.12910
H          0.20142       -2.56782        0.94890
C          2.36869       -2.40056        0.81139
H          2.17897       -0.06506       -1.55212
C          2.93329       -1.74837       -0.23158
H          2.82306       -3.21626        1.37683
C          4.26578       -1.98947       -0.85569
O          0.03879        2.10252       -0.34335
C          1.04297        2.59661        0.17043
O          1.97787        1.90449        0.75169
C          1.26981        4.07075        0.15886
H          2.19549        4.29210       -0.39232
H          0.41886        4.58089       -0.30360
H          1.41454        4.42262        1.19057
H          1.80309        0.92945        0.59990
Pd        -0.80776        0.22427       -0.12413
O         -3.05915        0.46439       -0.24889
C         -3.09279       -0.76868       -0.05235
O         -1.99438       -1.41240        0.10694
C         -4.37670       -1.53770       -0.02019
H         -4.48105       -2.09499       -0.96362
H         -4.35843       -2.27122        0.79710
H         -5.22643       -0.85349        0.08908
H          4.16348       -2.24889       -1.92236
H          4.80062       -2.80913       -0.35586
H          4.89859       -1.08775       -0.80706
