26
Cyclopentadiene_H5_Int2_Sub2.log	Energy: -776882.6086301
C          0.78021       -0.77944       -0.69265
C          0.92112       -2.07010        0.07807
C          1.75285       -0.75345       -1.63265
Cl         1.10910       -1.72632        1.84912
H          0.00817       -2.68091       -0.00887
C          2.13315       -2.73285       -0.50202
H          1.90871        0.03018       -2.37630
C          2.58109       -1.96636       -1.51452
H          2.53234       -3.68418       -0.15182
H          3.43086       -2.19639       -2.16087
O          0.60690        2.03067       -0.39429
C          1.59184        2.20727        0.32289
O          2.01730        1.36373        1.21813
C          2.40966        3.44857        0.21477
H          3.39780        3.18514       -0.19196
H          1.91520        4.16992       -0.44352
H          2.57080        3.87666        1.21371
H          1.50537        0.52156        1.19968
Pd        -0.67944        0.43047       -0.31837
O         -2.75602        1.11307        0.11108
C         -3.06351       -0.09842        0.05356
O         -2.14726       -0.96344       -0.18082
C         -4.47046       -0.57478        0.22755
H         -5.09653        0.22837        0.63351
H         -4.86575       -0.88480       -0.75167
H         -4.49050       -1.45437        0.88527
