38
Cyclopentadiene_H5_deriv1_Int2_Sub12.log	Energy: -875489.1602562
C          0.32896       -0.16974        0.11086
C          1.42396        0.68492       -0.47219
C          0.95334       -1.08101        0.90471
H          1.38925        0.72145       -1.57535
H          1.27872        1.72801       -0.13856
C          2.71210        0.10240        0.04479
Cl         0.19689       -2.28076        1.89522
C          2.40446       -0.93477        0.85928
C          4.07788        0.62245       -0.33470
H          3.09038       -1.57729        1.41017
O         -2.29263       -1.52874       -0.27979
C         -1.79110       -2.48129       -0.87880
O         -0.58063       -2.48239       -1.35044
C         -2.55185       -3.74516       -1.08566
H         -2.18434       -4.48210       -0.35448
H         -3.62128       -3.57502       -0.92361
H         -2.35896       -4.14646       -2.08906
H         -0.10766       -1.67299       -0.99867
Pd        -1.54132        0.36679       -0.02009
O         -3.27742        1.75464       -0.04249
C         -2.43404        2.66347        0.12351
O         -1.19141        2.35444        0.18663
C         -2.82751        4.09744        0.28130
H         -2.80949        4.35293        1.35196
H         -2.10605        4.74860       -0.22970
H         -3.84136        4.25698       -0.10475
C          4.16596        2.11764        0.00457
H          5.16181        2.51152       -0.25334
H          3.42024        2.70365       -0.55356
H          3.99718        2.28843        1.07882
C          5.17059       -0.13086        0.42338
H          5.15500       -1.20569        0.18656
H          6.16319        0.25852        0.14945
H          5.05175       -0.01829        1.51179
C          4.29274        0.43256       -1.84447
H          5.29028        0.79600       -2.13851
H          4.21991       -0.63023       -2.12198
H          3.54874        0.99060       -2.43291
