35
Cyclopentadiene_H5_Int2_Sub5.log	Energy: -562511.2260048
C          0.85887       -0.34563       -0.78861
C          1.27100       -1.71792       -0.29196
C          1.66593       -0.00071       -1.83164
C          1.58610       -1.85750        1.21551
H          0.41820       -2.39145       -0.51837
C          2.42369       -2.06476       -1.19253
H          1.58178        0.90595       -2.43613
C          2.64168       -1.06315       -2.06921
H          2.99715       -2.98937       -1.12311
H          3.41114       -1.03706       -2.84323
O          0.02932        2.39053        0.07051
C          1.15161        2.70914        0.46575
O          2.17015        1.90137        0.48866
C          1.43350        4.08840        0.95857
H          2.20145        4.55200        0.32221
H          0.51785        4.68821        0.95012
H          1.84650        4.03148        1.97611
H          1.91452        1.04579        0.03067
Pd        -0.80000        0.51669       -0.25882
O         -3.02750        0.64149        0.17239
C         -3.03942       -0.57983       -0.09023
O         -1.94509       -1.16783       -0.41112
C         -4.29744       -1.39078       -0.06233
H         -4.58195       -1.64541       -1.09446
H         -4.12372       -2.33436        0.47299
H         -5.10728       -0.82142        0.40865
H          2.43591       -1.18248        1.43014
C          0.41477       -1.44892        2.10102
H          0.65982       -1.60909        3.16252
H          0.14958       -0.38835        1.97220
H         -0.48469       -2.03753        1.86118
C          2.01881       -3.28121        1.55492
H          2.92409       -3.58806        1.01236
H          2.23197       -3.37442        2.63081
H          1.21814       -3.99930        1.31200
