31
Cyclopentadiene_H5_deriv1_Int2_Sub23.log	Energy: -836244.5886348
C          0.50335       -0.53874        0.48842
C          0.67856       -1.55269        1.58661
C          1.71063       -0.41380       -0.12216
H          0.37925       -1.14011        2.56860
H          0.00050       -2.40730        1.40769
C          2.11925       -1.94051        1.52207
Cl         2.05754        0.65130       -1.44376
C          2.73354       -1.27199        0.51166
H          2.60021       -2.64878        2.19836
N          4.07570       -1.27937        0.16751
O         -0.73027        2.09551       -0.19024
C          0.10563        2.74042        0.44375
O          0.94907        2.21047        1.27827
C          0.22959        4.21529        0.27422
H          1.11543        4.41109       -0.34991
H         -0.66097        4.61606       -0.22083
H          0.39570        4.69688        1.24675
H          0.89986        1.21723        1.18750
Pd        -1.26074        0.11498       -0.02112
O         -3.42145        0.00520       -0.51389
C         -3.31400       -1.22269       -0.29682
O         -2.17754       -1.69297        0.06307
C         -4.46070       -2.16621       -0.47188
H         -4.35389       -2.67595       -1.44174
H         -4.44449       -2.93424        0.31265
H         -5.40914       -1.61596       -0.46226
H          4.61546       -1.77850        0.86655
C          4.46768       -1.65798       -1.17576
H          5.55197       -1.51488       -1.29068
H          3.97107       -1.01366       -1.91203
H          4.22546       -2.70972       -1.42588
