42
Cyclopentadiene_H5_Int2_Sub27.log	Energy: -635715.0014096
C         -0.28287       -0.43607        0.47375
C         -0.13431       -1.37390        1.64088
C          0.95249       -0.23202       -0.06343
H         -0.54355       -0.95174        2.57704
H         -0.72667       -2.28785        1.45091
C          1.33614       -1.63225        1.70845
H          1.17299        0.35810       -0.95695
C          1.96629       -0.96617        0.71270
H          1.81855       -2.25773        2.46191
C          3.43375       -0.92865        0.41715
O         -1.51053        2.08342       -0.51779
C         -0.75389        2.83966        0.09209
O          0.14341        2.43982        0.94458
C         -0.80871        4.31611       -0.11241
H          0.15663        4.66436       -0.50809
H         -1.61901        4.57290       -0.80214
H         -0.95871        4.81058        0.85823
H          0.19512        1.43948        0.91632
Pd        -2.02869        0.10658       -0.16638
O         -4.21392       -0.15147       -0.72401
C         -4.05691       -1.33239       -0.34906
O         -2.91426       -1.70616        0.09930
C         -5.15451       -2.34756       -0.42622
H         -4.95587       -3.02251       -1.27269
H         -5.17057       -2.95802        0.48674
H         -6.12014       -1.85171       -0.58044
H          3.93710       -1.57614        1.15837
C          4.00454        0.48738        0.57554
H          3.80139        0.85323        1.59498
H          3.46717        1.16876       -0.10945
C          5.49722        0.53810        0.27046
H          5.86880        1.57177        0.36158
H          6.04106       -0.05399        1.02881
C          5.80513       -0.02053       -1.11448
H          6.89124       -0.00978       -1.30115
H          5.35217        0.63696       -1.87906
C          5.24978       -1.43124       -1.27722
H          5.78151       -2.11168       -0.58744
H          5.44555       -1.80806       -2.29420
C          3.75608       -1.48248       -0.97689
H          3.21148       -0.88960       -1.73409
H          3.37491       -2.51269       -1.06032
