35
Cyclopentadiene_H5_Int2_Sub13.log	Energy: -562515.5237318
C         -0.47658       -0.80918       -0.64748
C         -0.27904       -1.63936       -1.88743
C         -1.60797       -1.23439       -0.00792
H         -0.18835       -1.03569       -2.80884
H          0.67309       -2.19588       -1.80399
C         -1.46453       -2.54926       -1.90157
C         -2.12410       -0.78003        1.33033
C         -2.21950       -2.30626       -0.80972
H         -1.67249       -3.27914       -2.68557
H         -3.14574       -2.82092       -0.54548
O         -0.25207        2.06827        0.15754
C         -1.30750        2.37774       -0.39804
O         -2.02865        1.55391       -1.09638
C         -1.85963        3.75874       -0.28404
H         -2.74428        3.73129        0.37054
H         -1.10860        4.43304        0.14022
H         -2.19252        4.11000       -1.27010
H         -1.63755        0.62628       -1.01809
Pd         0.93160        0.37811       -0.01576
O          3.05583        0.93741        0.57924
C          3.32560       -0.25066        0.30545
O          2.39547       -1.03068       -0.11126
C          4.70260       -0.81580        0.46749
H          4.71668       -1.47382        1.34960
H          4.96384       -1.42920       -0.40554
H          5.43097       -0.00831        0.60690
H         -1.55070        0.12243        1.60500
C         -3.60850       -0.41944        1.29356
H         -3.94091       -0.03830        2.27175
H         -3.81866        0.35071        0.53600
H         -4.22869       -1.29866        1.05677
C         -1.83132       -1.84307        2.39066
H         -0.75352       -2.05632        2.44083
H         -2.16688       -1.50943        3.38534
H         -2.35123       -2.78655        2.15858
