38
Cyclopentadiene_H5_deriv1_Int2_Sub20.log	Energy: -875487.2286377
C         -0.15657       -0.42466       -0.43475
C         -0.49039       -1.45535       -1.47447
C         -1.31762       -0.15092        0.21940
H         -0.19445       -1.14611       -2.49354
H          0.08430       -2.37733       -1.26864
C         -1.96201       -1.66059       -1.34133
Cl        -1.41604        0.92994        1.57637
C         -2.46599       -0.89767       -0.34194
H         -2.53498       -2.32944       -1.98293
C         -3.90973       -0.80882        0.10780
O          1.39864        2.06603        0.11219
C          0.60278        2.78938       -0.48741
O         -0.34865        2.34292       -1.25220
C          0.65988        4.27206       -0.35332
H         -0.14820        4.58198        0.32761
H          1.62454        4.57775        0.06483
H          0.47717        4.74933       -1.32494
H         -0.40593        1.35163       -1.13955
Pd         1.68890        0.03236       -0.00862
O          3.84112       -0.31815        0.40754
C          3.58154       -1.53001        0.23512
O          2.38353       -1.87178       -0.06714
C          4.61479       -2.59816        0.39887
H          4.48869       -3.06272        1.38890
H          4.47560       -3.38151       -0.35784
H          5.62039       -2.16564        0.33498
C         -4.03028       -1.26040        1.57129
H         -5.08137       -1.20745        1.89695
H         -3.68887       -2.30067        1.68491
H         -3.43347       -0.63074        2.24458
C         -4.40871        0.63598       -0.04696
H         -4.34901        0.95641       -1.09868
H         -5.45998        0.71029        0.27376
H         -3.81822        1.33760        0.55780
C         -4.78613       -1.72020       -0.75313
H         -5.83398       -1.65090       -0.42328
H         -4.74826       -1.43243       -1.81486
H         -4.47719       -2.77327       -0.66979
