29
Cyclopentadiene_H5_deriv1_Int2_Sub14.log	Energy: -801539.9408430
C         -0.75878       -0.63586       -0.06843
C         -0.94726       -1.94096       -0.79917
C         -1.87932       -0.46927        0.68589
H         -0.84841       -1.83591       -1.89498
H         -0.15185       -2.64736       -0.49859
C         -2.31002       -2.43210       -0.40061
Cl        -2.19604        0.81976        1.79473
C         -2.83873       -1.54953        0.47770
C         -2.92196       -3.68010       -0.93050
H         -3.81192       -1.60615        0.96709
O          0.25145        2.16708       -0.11640
C         -0.72861        2.58629       -0.73400
O         -1.58480        1.81835       -1.33799
C         -1.02282        4.04456       -0.80955
H         -1.83564        4.26073       -0.09866
H         -0.13606        4.62506       -0.53467
H         -1.37857        4.31030       -1.81348
H         -1.39764        0.87179       -1.07045
Pd         0.97963        0.24798       -0.01059
O          3.19079        0.41319        0.10921
C          3.18965       -0.83733        0.14783
O          2.07085       -1.45989        0.08436
C          4.44789       -1.63152        0.29588
H          4.54999       -1.93875        1.34806
H          4.39707       -2.54262       -0.31482
H          5.31586       -1.02163        0.01830
H         -3.91437       -3.85865       -0.49336
H         -2.28947       -4.55734       -0.71436
H         -3.03555       -3.63712       -2.02699
