29
Cyclopentadiene_H5_deriv1_Int2_Sub22.log	Energy: -801540.2481595
C         -0.61079       -0.76180       -0.34234
C         -0.64064       -1.93446       -1.28732
C         -1.80230       -0.78011        0.31314
H         -0.45189       -1.63733       -2.33533
H          0.17907       -2.62989       -1.02859
C         -1.99093       -2.54563       -1.09690
Cl        -2.30282        0.29656        1.57364
C         -2.67750       -1.86751       -0.14965
H         -2.36002       -3.40800       -1.65488
C         -4.04690       -2.11124        0.37878
O          0.16553        2.08105        0.10436
C         -0.79141        2.52517       -0.53096
O         -1.53856        1.80348       -1.31216
C         -1.18767        3.95703       -0.42413
H         -2.06866        4.01438        0.23416
H         -0.37175        4.54475        0.00913
H         -1.48096        4.34586       -1.40794
H         -1.30240        0.84280       -1.17112
Pd         1.03686        0.22111        0.00504
O          3.20675        0.52355        0.35606
C          3.30838       -0.71582        0.21620
O          2.25524       -1.39999       -0.04040
C          4.61252       -1.43111        0.36760
H          4.65248       -1.88440        1.37000
H          4.68960       -2.24179       -0.36893
H          5.44579       -0.72604        0.26315
H         -4.69187       -1.23077        0.22733
H         -4.02200       -2.29915        1.46415
H         -4.51338       -2.97499       -0.11396
