35
Cyclopentadiene_H5_deriv1_Int2_Sub5.log	Energy: -850835.5650943
C         -0.60888        0.65749       -0.46204
C         -0.35772        2.13306       -0.21125
C         -1.68298        0.58139       -1.29384
C         -0.27060        2.58312        1.26581
H          0.61777        2.36398       -0.68785
C         -1.44934        2.81594       -0.98829
Cl        -2.36586       -0.85931       -1.96194
C         -2.21792        1.90132       -1.61042
H         -1.59400        3.89600       -1.02000
H         -3.08441        2.07545       -2.24893
O         -0.62439       -2.10346        0.67958
C         -1.68079       -1.91481        1.28432
O         -2.22647       -0.74612        1.44131
C         -2.44173       -3.05158        1.87469
H         -3.30244       -3.26004        1.22027
H         -1.80709       -3.94169        1.93579
H         -2.83444       -2.77386        2.86163
H         -1.73312       -0.08815        0.86868
Pd         0.71089       -0.72887       -0.07067
O          2.71350       -1.67867        0.01787
C          3.14568       -0.60595       -0.46061
O          2.31942        0.34397       -0.70167
C          4.59104       -0.40160       -0.78365
H          4.72476       -0.47412       -1.87379
H          4.90776        0.60431       -0.47689
H          5.20215       -1.16942       -0.29474
H         -1.25287        2.36642        1.72651
C          0.80100        1.82866        2.04392
H          0.86602        2.20748        3.07565
H          0.59265        0.74921        2.09390
H          1.78812        1.94619        1.56983
C         -0.02375        4.08578        1.36710
H         -0.82451        4.67874        0.90298
H          0.04539        4.39544        2.42097
H          0.92645        4.35775        0.87847
