29
Cyclopentadiene_H5_deriv1_Int2_Sub6.log	Energy: -801536.4922832
C         -0.57048        0.98811       -0.03638
C         -0.26730        2.29725        0.66021
C         -1.72944        1.17512       -0.72381
C          0.04909        2.18499        2.14873
H          0.62857        2.70574        0.14974
C         -1.43757        3.17261        0.31948
Cl        -2.51223        0.03986       -1.76787
C         -2.27909        2.51096       -0.49911
H         -1.56285        4.19027        0.69378
H         -3.20927        2.87021       -0.94055
O         -0.57382       -1.98645        0.07413
C         -1.60187       -2.04198        0.75039
O         -2.10753       -1.02460        1.38199
C         -2.37536       -3.30872        0.87105
H         -3.24402       -3.23576        0.19796
H         -1.75615       -4.16102        0.57261
H         -2.75476       -3.42884        1.89403
H         -1.62692       -0.20148        1.08401
Pd         0.76245       -0.43473       -0.09495
O          2.78756       -1.34210       -0.21864
C          3.20882       -0.16592       -0.28101
O          2.36568        0.79922       -0.22933
C          4.65993        0.15580       -0.44090
H          4.84751        0.43468       -1.48910
H          4.92807        1.01708        0.18545
H          5.27246       -0.71769       -0.18803
H          0.27227        3.17278        2.57949
H          0.92556        1.53851        2.30111
H         -0.80088        1.75765        2.70375
