29
Cyclopentadiene_H5_Int2_Sub22.log	Energy: -513215.5938821
C         -1.03826       -0.40760        0.24260
C         -1.52679       -1.56909       -0.58142
C         -2.02395       -0.08220        1.12696
H         -1.49883       -1.36529       -1.66737
H         -0.85652       -2.43464       -0.42872
C         -2.91845       -1.83093       -0.08180
H         -1.96704        0.68393        1.90433
C         -3.18068       -0.95238        0.91511
C         -3.80896       -2.88503       -0.63856
H         -4.11124       -0.89465        1.48415
O          0.38870        2.20873        0.23346
C         -0.55375        2.84707       -0.23739
O         -1.66123        2.30717       -0.65158
C         -0.49340        4.33215       -0.36242
H         -1.27049        4.78044        0.27419
H          0.49568        4.69696       -0.06760
H         -0.71794        4.61941       -1.39960
H         -1.65781        1.33420       -0.40537
Pd         0.80716        0.18285        0.13632
O          3.05760       -0.05607       -0.02804
C          2.81480       -1.28004       -0.08087
O          1.59809       -1.68488       -0.03720
C          3.90118       -2.30645       -0.16800
H          4.02230       -2.78028        0.81811
H          3.62269       -3.09357       -0.88158
H          4.84726       -1.83427       -0.45806
H         -3.35058       -3.88475       -0.55265
H         -4.00613       -2.72224       -1.71198
H         -4.77646       -2.90889       -0.11707
