42
Cyclopentadiene_H5_Int2_Sub19.log	Energy: -635714.6022884
C         -0.28626       -0.46755        0.54434
C          0.99557        0.06651       -0.03514
C          0.03696       -1.38980        1.49560
H          1.04374       -0.05012       -1.13268
H          1.05065        1.15519        0.14504
C          2.07924       -0.69271        0.67789
H         -0.66370       -1.92553        2.14095
C          1.49064       -1.53163        1.56418
C          3.54215       -0.51917        0.42107
H          2.01601       -2.21260        2.23771
O         -3.06139       -1.41753        0.03590
C         -2.72740       -2.52349       -0.39156
O         -1.49516       -2.87444       -0.61180
C         -3.74288       -3.57434       -0.68984
H         -3.57059       -4.44114       -0.03496
H         -4.75239       -3.17857       -0.53978
H         -3.61427       -3.91963       -1.72576
H         -0.88826       -2.15954       -0.25555
Pd        -1.98842        0.35290        0.10497
O         -3.41439        2.05873       -0.35904
C         -2.40777        2.78798       -0.23949
O         -1.27077        2.25644        0.02709
C         -2.48015        4.27753       -0.37202
H         -2.41656        4.72747        0.63048
H         -1.62615        4.64756       -0.95529
H         -3.42748        4.57173       -0.83902
H          4.07529       -1.21195        1.09855
C          4.02214        0.90292        0.74678
H          3.76040        1.15011        1.78806
H          3.47394        1.61980        0.10908
C          5.51984        1.06317        0.51283
H          5.82909        2.09855        0.72972
H          6.06829        0.42079        1.22564
C          5.90830        0.67766       -0.91023
H          6.99855        0.76096       -1.04836
H          5.45015        1.39384       -1.61660
C          5.43459       -0.73120       -1.25106
H          5.97858       -1.45925       -0.62214
H          5.68327       -0.97950       -2.29573
C          3.93663       -0.89045       -1.01586
H          3.38723       -0.23754       -1.71810
H          3.61546       -1.92230       -1.23202
