30
Cyclopentadiene_H5_deriv1_Int2_Sub24.log	Energy: -848700.0297953
C          0.51817       -0.52659        0.46960
C          0.69441       -1.60526        1.50941
C          1.73301       -0.35652       -0.11317
H          0.37539       -1.26513        2.51180
H          0.03282       -2.45608        1.26413
C          2.14112       -1.97457        1.45845
Cl         2.13998        0.73573       -1.38876
C          2.74429       -1.23767        0.50103
H          2.63250       -2.70379        2.10198
O          4.04701       -1.23754        0.16434
O         -0.72551        2.09193       -0.22365
C          0.08029        2.74725        0.43832
O          0.88098        2.22915        1.32169
C          0.21732        4.21792        0.24871
H          1.12708        4.39754       -0.34530
H         -0.65152        4.61361       -0.28733
H          0.34936        4.71612        1.21799
H          0.83584        1.23642        1.24082
Pd        -1.25402        0.11440       -0.02954
O         -3.41478       -0.00647       -0.50970
C         -3.30356       -1.23226       -0.28332
O         -2.16326       -1.69541        0.07536
C         -4.44783       -2.18041       -0.44526
H         -4.34397       -2.69775       -1.41142
H         -4.42573       -2.94188        0.34550
H         -5.39783       -1.63291       -0.43581
C          4.35710       -1.85681       -1.06577
H          4.09609       -2.92929       -1.04428
H          3.83382       -1.37766       -1.90963
H          5.43997       -1.75267       -1.21314
