35
Cyclopentadiene_H5_Int2_Sub29.log	Energy: -562515.0301410
C         -0.47157       -0.50844       -0.30532
C         -0.68605       -1.50897       -1.40844
C         -1.65480       -0.34208        0.34951
H         -0.39940       -1.11311       -2.39999
H         -0.02692       -2.38081       -1.24183
C         -2.13857       -1.84632       -1.30920
H         -1.81518        0.27952        1.23450
C         -2.69924       -1.16602       -0.28232
H         -2.65930       -2.53325       -1.97909
C         -4.13083       -1.19667        0.17030
O          0.71736        2.11488        0.43634
C         -0.13589        2.80121       -0.12693
O         -1.09235        2.31446       -0.86178
C         -0.13879        4.28726        0.00067
H         -1.07541        4.60914        0.47911
H          0.72333        4.61836        0.58834
H         -0.11598        4.73675       -1.00261
H         -1.08692        1.31571       -0.78122
Pd         1.29920        0.14942        0.12513
O          3.53977        0.02349        0.46493
C          3.40754       -1.18117        0.16297
O          2.24643       -1.63068       -0.14719
C          4.55861       -2.13830        0.17295
H          4.48280       -2.77636        1.06662
H          4.51306       -2.79443       -0.70672
H          5.50785       -1.59037        0.20161
H         -4.66227       -1.90279       -0.49076
C         -4.25048       -1.71138        1.60483
H         -5.30586       -1.77421        1.91336
H         -3.80166       -2.71042        1.70745
H         -3.73721       -1.04076        2.31286
C         -4.78330        0.17769        0.01565
H         -4.72925        0.52888       -1.02572
H         -5.84300        0.14797        0.31424
H         -4.28144        0.92876        0.64741
