30
Ethene_H2_Int2_Sub13.log	Energy: -490080.1757489
C          0.72080       -0.84445       -0.49946
C          1.86751       -0.95137        0.18992
H          0.58187       -1.43728       -1.41796
C          3.03871       -1.81838       -0.19177
H          1.99155       -0.39198        1.13053
O          0.09209        1.87619        0.54805
C          1.03899        2.44245        0.00297
O          1.82387        1.86937       -0.86447
C          1.37175        3.86414        0.30475
H          2.38259        3.91773        0.73499
H          1.38691        4.43928       -0.63236
H          0.63802        4.28452        0.99982
H          1.60601        0.89476       -0.89198
Pd        -0.88266        0.11719        0.02940
O         -3.09270        0.42383        0.39228
C         -3.21714       -0.74195       -0.04131
O         -2.17761       -1.39028       -0.41788
C         -4.54678       -1.42637       -0.11692
H         -4.60700       -2.17759        0.68522
H         -5.35675       -0.69816        0.00853
H         -4.64444       -1.95695       -1.07376
H          2.80482       -2.28758       -1.16350
C          4.30592       -0.97910       -0.35124
H          5.16326       -1.60742       -0.63935
H          4.18186       -0.19995       -1.11882
H          4.56546       -0.47719        0.59582
C          3.23404       -2.92725        0.84182
H          2.33331       -3.55241        0.92857
H          4.08073       -3.57641        0.56795
H          3.44629       -2.50344        1.83729
