33
Ethene_H2_Int2_Sub12.log	Energy: -514730.4543356
C         -0.65939       -0.67623        0.38695
C         -1.77830       -0.61252       -0.35091
H         -0.60858       -1.31830        1.27791
C         -3.09205       -1.33012       -0.10800
H         -1.77929        0.00810       -1.26017
O          0.30722        2.01428       -0.47114
C         -0.59372        2.64848        0.07698
O         -1.47494        2.11441        0.87386
C         -0.75243        4.11539       -0.13819
H         -1.73116        4.31146       -0.60018
H         -0.74455        4.62710        0.83508
H          0.05330        4.49317       -0.77561
H         -1.36799        1.12094        0.84340
Pd         1.05838        0.12456       -0.04709
O          3.30037        0.19032       -0.34131
C          3.27521       -1.00606        0.01958
O          2.15670       -1.54921        0.33068
C          4.51332       -1.84611        0.08087
H          4.50957       -2.54866       -0.76636
H          5.40602       -1.21243        0.02069
H          4.51995       -2.44208        1.00357
C         -3.07878       -2.14727        1.18066
H         -4.04878       -2.64844        1.32207
H         -2.29918       -2.92359        1.15748
H         -2.89903       -1.51011        2.06058
C         -4.20645       -0.27703       -0.04061
H         -4.23575        0.33078       -0.95909
H         -5.19081       -0.75830        0.07473
H         -4.05950        0.40600        0.81071
C         -3.34338       -2.25807       -1.30455
H         -4.31564       -2.76678       -1.20290
H         -3.35501       -1.69467       -2.25095
H         -2.55777       -3.02514       -1.37799
