36
Furan_H7_Int2_Sub20.log	Energy: -609698.5914966
C         -0.40017        0.13735       -0.34056
C         -1.10069        0.89143       -1.24668
C         -1.41058       -0.57858        0.40083
O         -2.43382        0.69487       -1.10813
H         -0.80206        1.57609       -2.03711
C         -2.62094       -0.20066       -0.10651
H         -1.23693       -1.29744        1.19703
C         -4.04340       -0.56224        0.20934
O          1.96479        1.88464       -0.29402
C          1.40872        2.81209        0.29696
O          0.25126        2.70671        0.88129
C          2.03660        4.16118        0.38339
H          2.09950        4.46538        1.43807
H          3.03218        4.14460       -0.07125
H          1.39415        4.89304       -0.12809
H         -0.14039        1.82132        0.64078
Pd         1.52754       -0.12740       -0.16380
O          3.45301       -1.18603        0.08552
C          2.76630       -2.23265        0.13983
O          1.49224       -2.14399        0.05547
C          3.38886       -3.58610        0.26955
H          2.77712       -4.22562        0.91936
H          3.42392       -4.05551       -0.72559
H          4.41123       -3.49757        0.65617
C         -4.06394       -1.57844        1.34996
H         -5.10182       -1.85459        1.59041
H         -3.52281       -2.49689        1.07666
H         -3.60331       -1.16700        2.26099
C         -4.80453        0.70471        0.62485
H         -4.77661        1.45884       -0.17525
H         -5.85872        0.46728        0.83811
H         -4.36228        1.14982        1.52937
C         -4.69530       -1.16860       -1.04141
H         -5.74830       -1.42185       -0.84085
H         -4.66505       -0.45993       -1.88184
H         -4.17202       -2.08611       -1.35055
