33
Furan_H6_Int2_Sub21.log	Energy: -585051.1210374
C          0.43320       -0.54449        0.44285
C          0.88280       -1.21635        1.55332
O          1.50193       -0.28696       -0.36959
C          2.29812       -1.37898        1.39415
H          0.26133       -1.56869        2.37375
C          2.62336       -0.79386        0.20408
H          2.98527       -1.86817        2.08029
C          3.89711       -0.62452       -0.55479
O         -0.52077        1.94309       -0.51850
C          0.27468        2.58266        0.17122
O          0.82659        2.13407        1.26137
C          0.68842        3.96148       -0.21415
H          1.72405        3.92188       -0.58546
H          0.03088        4.34662       -1.00019
H          0.67865        4.61773        0.66637
H          0.59895        1.17157        1.37687
Pd        -1.31614        0.09266       -0.09799
O         -3.46829        0.16369       -0.52639
C         -3.49671       -1.03406       -0.15476
O         -2.41208       -1.58123        0.24517
C         -4.74953       -1.84836       -0.19213
H         -4.73150       -2.48272       -1.09163
H         -4.79833       -2.51038        0.68243
H         -5.62699       -1.19227       -0.23730
H          4.03700        0.46268       -0.70887
C          5.08408       -1.14836        0.24209
H          6.02174       -0.98271       -0.30862
H          5.16955       -0.64860        1.21853
H          4.98851       -2.23114        0.42122
C          3.80459       -1.27788       -1.93514
H          2.94183       -0.89322       -2.49731
H          4.71554       -1.08126       -2.52124
H          3.68635       -2.36866       -1.83842
