33
Furan_H6_Int2_Sub13.log	Energy: -585048.0907371
C          0.56948       -0.15066       -0.41109
C          1.56466       -0.78989        0.28960
O          1.12986        0.51499       -1.45846
C          2.80667       -0.50403       -0.37996
H          1.41247       -1.41287        1.16901
C          2.46574        0.29149       -1.43325
C          4.17812       -0.97813        0.00348
H          3.04923        0.75701       -2.22414
O         -1.18179        2.06261       -0.21049
C         -0.32418        2.77728        0.31003
O          0.71938        2.32974        0.94674
C         -0.41576        4.26292        0.23508
H          0.35233        4.62337       -0.46634
H         -1.40730        4.56213       -0.11963
H         -0.19778        4.70330        1.21730
H          0.77648        1.34088        0.84827
Pd        -1.33899        0.01298       -0.12085
O         -3.44531       -0.49112        0.24159
C         -3.07449       -1.68928        0.22453
O         -1.83365       -1.94827        0.05356
C         -4.03911       -2.82193        0.36806
H         -4.25840       -3.22743       -0.63161
H         -3.59246       -3.62801        0.96490
H         -4.97329       -2.46918        0.82117
H          4.88368       -0.55721       -0.73415
C          4.57623       -0.45731        1.38434
H          5.59994       -0.76934        1.64418
H          4.53003        0.64127        1.42436
H          3.90085       -0.84925        2.16193
C          4.27730       -2.50169       -0.06676
H          4.01903       -2.87135       -1.06997
H          5.29624       -2.84204        0.17586
H          3.58667       -2.97433        0.64995
