24
Furan_H7_Int2_Sub18.log	Energy: -799413.8416738
C          0.89762       -0.05280        0.26737
C          1.73337        0.64907        1.09816
C          1.75706       -0.95607       -0.45759
O          3.02386        0.25468        0.93519
H          1.57094        1.41632        1.85082
C          3.01615       -0.70893       -0.00001
H          1.46663       -1.69740       -1.19683
Cl         4.52135       -1.38755       -0.40295
O         -1.19969        1.99791        0.36709
C         -0.58838        2.84383       -0.28829
O          0.46170        2.57583       -1.00977
C         -1.01215        4.27177       -0.30027
H         -1.15758        4.59830       -1.34004
H         -1.93550        4.39678        0.27406
H         -0.20896        4.89125        0.12533
H          0.74062        1.64194       -0.81751
Pd        -1.05473       -0.04905        0.16668
O         -3.10927       -0.81878       -0.01425
C         -2.58209       -1.95062       -0.12414
O         -1.30482       -2.04028       -0.09932
C         -3.39332       -3.19874       -0.25273
H         -2.90758       -3.89831       -0.94562
H         -3.44823       -3.68680        0.73250
H         -4.40959       -2.95742       -0.58651
