36
Furan_H7_Int2_Sub4.log	Energy: -609698.3328448
C          0.80330        0.00334       -0.84833
C          1.73506       -0.86552       -0.31984
C          1.36893        0.46662       -2.09376
O          2.79969       -0.95648       -1.16273
C          1.76152       -1.77998        0.87840
C          2.57039       -0.15642       -2.22330
H          0.92302        1.16789       -2.79614
H          3.35206       -0.12691       -2.97852
O         -0.55757        2.39068        0.11680
C          0.48099        2.88664        0.55894
O          1.59539        2.23544        0.70381
C          0.53401        4.32027        0.96641
H          1.24408        4.85258        0.31629
H         -0.46005        4.77249        0.89171
H          0.91641        4.39378        1.99440
H          1.49283        1.31797        0.31092
Pd        -1.00926        0.41253       -0.23050
O         -3.15130        0.12907        0.26402
C         -2.97248       -1.07233       -0.04027
O         -1.80815       -1.44969       -0.41846
C         -4.07268       -2.08356        0.01298
H         -4.29513       -2.42898       -1.00754
H         -3.74256       -2.95879        0.59003
H         -4.97256       -1.64544        0.45997
C          0.95709       -1.17579        2.03126
H          0.98316       -1.85352        2.89846
H          1.37092       -0.20549        2.34793
H         -0.09664       -1.02783        1.75033
C          1.13165       -3.12160        0.46667
H          1.68605       -3.57089       -0.37124
H          1.15469       -3.82970        1.31102
H          0.08746       -2.97502        0.15372
C          3.20782       -2.00055        1.33375
H          3.22577       -2.67771        2.20129
H          3.81591       -2.44737        0.53514
H          3.68242       -1.05213        1.63011
