27
Furan_H6_Int2_Sub22.log	Energy: -535751.7853004
C          0.75326       -0.89887        0.18679
C          1.10996       -1.78845        1.17106
O          1.78900       -0.79316       -0.69902
C          2.42936       -2.24790        0.85388
H          0.48407       -2.08896        2.00854
C          2.79445       -1.61105       -0.29664
H          3.03239       -2.96338        1.40924
C          4.01181       -1.64463       -1.13851
O          0.32744        1.83940       -0.41628
C          1.29378        2.20090        0.25671
O          1.80655        1.51027        1.23363
C          1.97857        3.49586       -0.01725
H          2.95323        3.28235       -0.48233
H          1.37337        4.10621       -0.69528
H          2.17208        4.02581        0.92504
H          1.37463        0.61352        1.26752
Pd        -0.83651        0.17073       -0.11138
O         -2.93998        0.76530       -0.31642
C         -3.21592       -0.43299       -0.06844
O         -2.26015       -1.25002        0.16534
C         -4.62167       -0.94083       -0.06677
H         -4.81531       -1.44657       -1.02520
H         -4.75776       -1.67942        0.73413
H         -5.32571       -0.10745        0.04386
H          3.78129       -1.98370       -2.16127
H          4.74981       -2.33170       -0.70480
H          4.47288       -0.64679       -1.21883
