27
Furan_H7_Int2_Sub9.log	Energy: -722492.3132002
C          0.40094        0.90853       -0.65839
C          0.37114        1.73554       -1.75003
C          1.66091        1.22119       -0.02209
O          1.48472        2.50834       -1.81819
H         -0.37308        1.90630       -2.52364
C          2.25574        2.19552       -0.76993
C          2.24283        0.61629        1.20410
H          3.19348        2.73525       -0.66572
O          0.14825       -1.90177        0.09625
C          1.02958       -2.26683       -0.68364
O          1.40180       -1.58141       -1.72575
C          1.77004       -3.53797       -0.46386
H          2.70762       -3.28334        0.05502
H          1.18361       -4.21077        0.17083
H          2.02622       -4.00871       -1.42111
H          0.96285       -0.69301       -1.69646
Pd        -1.06181       -0.25280       -0.05207
O         -3.05973       -0.89279        0.55804
C         -3.41576        0.29093        0.34321
O         -2.54452        1.12282       -0.08983
C         -4.80761        0.76378        0.60604
H         -4.83251        1.25198        1.59247
H         -5.10592        1.50717       -0.14461
H         -5.50055       -0.08616        0.61531
F          2.70276       -0.63435        0.97900
F          1.35704        0.52034        2.19454
F          3.28360        1.32584        1.65053
