28
Furan_H6_Int2_Sub16.log	Energy: -582908.8047720
C         -0.86272       -0.16701        0.31560
C         -1.72141       -1.07364       -0.26310
O         -1.56287        0.64602        1.14462
C         -3.02290       -0.78324        0.26481
H         -1.43066       -1.86062       -0.95393
C         -2.86909        0.27600        1.11786
O         -4.19543       -1.38749        0.00712
H         -3.56407        0.83270        1.73790
O          0.85798        2.09872        0.26023
C          0.07447        2.76929       -0.41314
O         -0.80226        2.25890       -1.23078
C          0.06039        4.25573       -0.32969
H         -0.82698        4.55863        0.24745
H          0.96402        4.61341        0.17438
H         -0.03295        4.69081       -1.33349
H         -0.81139        1.27467       -1.11400
Pd         1.05643        0.05465        0.15327
O          3.18922       -0.42429       -0.06572
C          2.83028       -1.62531       -0.09802
O          1.58200       -1.89747       -0.02417
C          3.81362       -2.74694       -0.18901
H          3.97436       -3.15732        0.81979
H          3.41456       -3.55293       -0.81866
H          4.77087       -2.38094       -0.57914
C         -4.15515       -2.49026       -0.85507
H         -3.79491       -2.21138       -1.86166
H         -3.51037       -3.29576       -0.46079
H         -5.18218       -2.86804       -0.94037
