33
Furan_H6_Int2_Sub5.log	Energy: -585048.6491797
C         -0.81056        0.41152       -0.67278
C         -1.25763        1.62105       -0.18554
O         -1.62849        0.00089       -1.68670
C         -2.41575        1.95618       -0.96971
C         -0.61294        2.43537        0.89961
C         -2.58438        0.93822       -1.85720
H         -3.04172        2.84181       -0.87894
H         -3.31586        0.74467       -2.63810
O         -0.48989       -2.32224        0.06454
C         -1.59410       -2.36123        0.61135
O         -2.24635       -1.31347        1.02049
C         -2.28991       -3.65941        0.83992
H         -3.15319       -3.71774        0.15956
H         -1.60791       -4.49320        0.64478
H         -2.67781       -3.69984        1.86681
H         -1.77187       -0.48797        0.71534
Pd         0.72004       -0.68089       -0.19341
O          2.79696       -1.26386        0.26436
C          3.09669       -0.07470        0.00635
O          2.16531        0.73888       -0.32512
C          4.50626        0.42035        0.04894
H          4.87566        0.52887       -0.98220
H          4.54293        1.41172        0.52021
H          5.14332       -0.29190        0.58639
H          0.11203        1.77197        1.40199
C          0.17884        3.59819        0.30098
H          0.66532        4.18937        1.09329
H          0.95781        3.22012       -0.37590
H         -0.48006        4.27374       -0.26846
C         -1.62853        2.91209        1.93476
H         -2.17937        2.06845        2.37891
H         -1.13055        3.46062        2.74922
H         -2.36878        3.59275        1.48370
