40
Furan_H7_Int2_Sub19.log	Energy: -658248.3099283
C         -0.20562        0.21349        0.53555
C          0.32889        1.06428        1.46915
C          0.92946       -0.48607       -0.01647
O          1.67689        0.93984        1.51964
H         -0.10773        1.77826        2.16363
C          2.03974       -0.00520        0.61698
H          0.90234       -1.26400       -0.77504
C          3.49671       -0.28854        0.50162
O         -2.62779        1.81213        0.06475
C         -2.04407        2.73332       -0.50924
O         -0.81448        2.66121       -0.92732
C         -2.72174        4.03531       -0.76887
H         -2.65785        4.27015       -1.84108
H         -3.76722        3.98792       -0.44813
H         -2.19129        4.83366       -0.22924
H         -0.41483        1.81665       -0.57701
Pd        -2.07725       -0.17423        0.12955
O         -3.89778       -1.35662       -0.29314
C         -3.15858       -2.36248       -0.18521
O         -1.91303       -2.19417        0.05670
C         -3.68978       -3.75565       -0.29998
H         -2.96815       -4.39585       -0.82433
H         -3.82739       -4.16570        0.71234
H         -4.65745       -3.75113       -0.81583
H          3.85279       -0.58423        1.50827
C          4.28837        0.96094        0.08860
H          4.09495        1.77290        0.80646
H          3.90700        1.30647       -0.88935
C          5.78042        0.66909       -0.01432
H          6.32083        1.57185       -0.34203
H          6.17102        0.42166        0.98950
C          6.05808       -0.49335       -0.96139
H          7.13698       -0.71583       -0.99272
H          5.77129       -0.19973       -1.98763
C          5.27056       -1.73596       -0.55935
H          5.63849       -2.09884        0.41744
H          5.44650       -2.55263       -1.27778
C          3.77741       -1.44674       -0.45417
H          3.38322       -1.18564       -1.45290
H          3.23014       -2.34486       -0.12630
