33
Furan_H7_Int2_Sub13.log	Energy: -585047.0782687
C          0.69649        0.76038       -0.74351
C          1.14610        0.99158       -2.01942
C          1.37969        1.74213        0.07995
O          2.03186        2.01344       -2.04851
H          0.91476        0.53600       -2.97953
C          2.16157        2.45662       -0.78059
C          1.24463        1.96014        1.55992
H          2.84872        3.28642       -0.62948
O          0.56262       -2.05659        0.21837
C          1.77359       -2.22776        0.06818
O          2.56935       -1.36325       -0.48270
C          2.43420       -3.47595        0.54754
H          3.03041       -3.23298        1.44067
H          1.68057       -4.22735        0.80475
H          3.12579       -3.85440       -0.21700
H          2.04529       -0.55046       -0.74570
Pd        -0.70983       -0.49571       -0.20407
O         -2.73873       -1.25576        0.23598
C         -3.13965       -0.11585       -0.09510
O         -2.28057        0.76029       -0.46232
C         -4.58680        0.25889       -0.08202
H         -4.72595        1.16676        0.52196
H         -4.90965        0.49538       -1.10656
H         -5.19003       -0.56365        0.31927
H          1.98477        2.73143        1.83653
C         -0.14447        2.49336        1.91169
H         -0.23840        2.66041        2.99632
H         -0.34393        3.44388        1.39551
H         -0.92696        1.78378        1.60019
C          1.57435        0.69548        2.35182
H          2.57549        0.31413        2.09745
H          1.54719        0.89269        3.43458
H          0.83974       -0.09892        2.14092
