24
Furan_H7_Int2_Sub2.log	Energy: -799414.4402676
C          0.58816       -1.07242       -0.24946
C          1.78676       -1.27195        0.38858
C          0.46435       -2.22991       -1.10390
O          2.39355       -2.40726       -0.00025
Cl         2.61685       -0.34528        1.55553
C          1.57682       -2.98884       -0.91255
H         -0.37343       -2.45536       -1.76028
H          1.92615       -3.93102       -1.32621
O          0.49611        1.84340        0.16409
C          1.46527        2.06566       -0.56284
O          1.89448        1.23348       -1.46700
C          2.25388        3.32143       -0.43512
H          2.55460        3.68733       -1.42527
H          1.67812        4.07565        0.11122
H          3.17027        3.08435        0.12797
H          1.41693        0.37078       -1.34666
Pd        -0.81481        0.26696        0.03497
O         -2.82370        1.10725        0.29556
C         -3.24185       -0.06635        0.15354
O         -2.39195       -0.99916       -0.06279
C         -4.69095       -0.41360        0.25888
H         -4.94788       -1.19726       -0.46583
H         -4.88575       -0.81138        1.26672
H         -5.30682        0.48065        0.10554
