33
Furan_H7_Int2_Sub5.log	Energy: -585048.8342266
C          0.47688       -0.84298       -0.62111
C          1.67358       -1.13010       -0.00389
C          0.42906       -1.70504       -1.77896
O          2.34402       -2.08064       -0.70466
C          2.31610       -0.64366        1.25311
C          1.58559       -2.42031       -1.77099
H         -0.37687       -1.77767       -2.50574
H          2.00120       -3.17802       -2.43071
O          0.15316        1.96634        0.27158
C          1.08699        2.37820       -0.41971
O          1.67228        1.67075       -1.33934
C          1.64547        3.74595       -0.22209
H          1.87411        4.20452       -1.19306
H          0.94417        4.36118        0.35123
H          2.59188        3.65762        0.33404
H          1.32408        0.73228       -1.28584
Pd        -1.00061        0.27760        0.01310
O         -3.06118        0.83629        0.59081
C         -3.36547       -0.34191        0.29212
O         -2.45307       -1.12698       -0.14353
C         -4.75462       -0.87084        0.45521
H         -5.00771       -1.53733       -0.37989
H         -4.80081       -1.46362        1.38165
H         -5.46994       -0.04279        0.52640
H          1.67541        0.17925        1.61062
C          2.31654       -1.73937        2.32123
H          2.75273       -1.36935        3.26204
H          1.29340       -2.08693        2.52615
H          2.90917       -2.60471        1.98646
C          3.72474       -0.10544        0.99834
H          3.71775        0.70342        0.25190
H          4.16922        0.28287        1.92752
H          4.37935       -0.90358        0.61625
