36
Furan_H6_Int2_Sub4.log	Energy: -609697.7479777
C         -0.78748        0.11867       -0.80557
C         -1.69425        1.07007       -0.37157
O         -1.28923       -0.50995       -1.90872
C         -2.79767        0.99917       -1.29452
C         -1.53752        2.05555        0.77224
C         -2.49075        0.02932       -2.19659
H         -3.70651        1.59543       -1.27850
H         -3.01091       -0.37900       -3.05953
O          0.20567       -2.36184        0.20623
C         -0.89599       -2.70018        0.64260
O         -1.89574       -1.89032        0.82728
C         -1.17425       -4.12244        0.99411
H         -1.90704       -4.52570        0.27893
H         -0.25129       -4.70962        0.95310
H         -1.62858       -4.17564        1.99310
H         -1.66603       -0.97937        0.48068
Pd         0.95629       -0.49039       -0.19987
O          3.09585       -0.52926        0.31342
C          3.12471        0.66903       -0.05259
O          2.04273        1.21191       -0.46951
C          4.37735        1.48356       -0.02732
H          4.65617        1.74920       -1.05775
H          4.19572        2.42227        0.51486
H          5.19026        0.91900        0.44370
C         -0.61691        3.19606        0.31209
H         -0.51238        3.95108        1.10878
H          0.38115        2.81330        0.05457
H         -1.03132        3.69411       -0.57793
C         -2.90172        2.63129        1.16149
H         -3.60826        1.83688        1.44941
H         -2.79256        3.31531        2.01717
H         -3.35002        3.20623        0.33709
C         -0.92559        1.37601        2.00227
H         -0.80350        2.10454        2.81911
H         -1.56616        0.55991        2.37351
H          0.06836        0.95898        1.77461
