27
Furan_H6_Int2_Sub9.log	Energy: -722493.9170580
C         -0.40765       -0.01385        0.28194
C         -1.38310       -0.76047       -0.32947
O         -1.00568        0.87076        1.13998
C         -2.63231       -0.29957        0.19617
H         -1.22005       -1.55762       -1.05073
C         -2.33591        0.69008        1.08489
C         -3.99003       -0.79122       -0.15482
H         -2.95231        1.32107        1.71939
O          1.62366        1.98847        0.32604
C          0.96783        2.78824       -0.34273
O          0.05087        2.43575       -1.19978
C          1.16755        4.25693       -0.20922
H          0.30183        4.67655        0.32605
H          2.08323        4.46264        0.35431
H          1.20003        4.72481       -1.20223
H         -0.09183        1.45941       -1.13310
Pd         1.52799       -0.05718        0.15241
O          3.56715       -0.80973       -0.04987
C          3.05389       -1.95252       -0.12447
O          1.77853       -2.05290       -0.07558
C          3.87862       -3.19162       -0.23776
H          3.95651       -3.65514        0.75772
H          3.38996       -3.91330       -0.90539
H          4.88569       -2.94506       -0.59462
F         -4.25056       -0.63364       -1.45832
F         -4.93623       -0.13483        0.52603
F         -4.13213       -2.09352        0.11058
