40
Furan_H6_Int2_Sub3.log	Energy: -658248.8653432
C          0.38695       -0.80635       -0.89484
C         -0.89373       -1.29498       -0.74947
O          1.08169       -1.60312       -1.75961
C         -0.96793       -2.45790       -1.59200
C         -1.98015       -0.67899        0.07579
C          0.25622       -2.58778       -2.17309
H         -1.82462       -3.11214       -1.74158
H          0.67622       -3.30743       -2.87165
O          2.83928       -0.37485        0.48717
C          2.79307       -1.48188        1.02783
O          1.70489       -2.17743        1.17978
C          4.02770       -2.12973        1.55431
H          4.27898       -2.98203        0.90470
H          4.85600       -1.41401        1.56262
H          3.84082       -2.52779        2.56089
H          0.95782       -1.73283        0.68708
Pd         1.24560        0.76147       -0.14011
O          1.57679        2.85147        0.48640
C          0.46766        3.09555       -0.04299
O         -0.18493        2.13404       -0.58081
C         -0.10975        4.47335       -0.08877
H          0.00217        4.87166       -1.10870
H         -1.18411        4.43849        0.13700
H          0.41632        5.12990        0.61418
H         -1.49977        0.07533        0.72522
C         -2.69097       -1.69287        0.97658
H         -1.95547       -2.19819        1.62468
H         -3.14184       -2.48189        0.34725
C         -3.78089       -1.03369        1.81428
H         -4.29619       -1.78786        2.43123
H         -3.31246       -0.32338        2.51970
C         -4.78102       -0.28348        0.94106
H         -5.53801        0.21624        1.56739
H         -5.32851       -1.01020        0.31320
C         -4.08065        0.72734        0.03937
H         -3.62361        1.51726        0.66292
H         -4.81107        1.23301       -0.61308
C         -2.98957        0.07394       -0.80032
H         -3.44324       -0.63638       -1.51580
H         -2.45027        0.82859       -1.39200
