36
Imidazole_H6_deriv1_Int2_Sub14.log	Energy: -607319.6541131
C          0.36334       -0.49368       -0.34690
C          0.95947       -1.62264       -0.89191
N          1.43111        0.25834        0.09455
H          0.47383       -2.46526       -1.38411
N          2.32183       -1.55568       -0.77637
C          2.58326       -0.40921       -0.18784
H          1.32879        1.19010        0.48029
C          3.94875        0.12517        0.16148
O         -2.39549       -1.51267       -0.37002
C         -2.18284       -2.52440        0.30266
O         -1.09881       -2.72330        0.99160
C         -3.17870       -3.63115        0.36509
H         -3.36132       -3.90147        1.41455
H         -4.10950       -3.33162       -0.12694
H         -2.75729       -4.51835       -0.13105
H         -0.42557       -2.02185        0.76236
Pd        -1.40951        0.28732       -0.21464
O         -2.91630        1.92485        0.03580
C         -1.93028        2.68318        0.13501
O         -0.74880        2.17936        0.06648
C         -2.06735        4.16218        0.30238
H         -1.85602        4.64893       -0.66206
H         -3.08702        4.41540        0.61549
H         -1.33206        4.53229        1.02940
C          5.00675       -0.84882       -0.35191
H          6.01261       -0.47798       -0.10110
H          4.87266       -1.84444        0.09307
H          4.93429       -0.96909       -1.44190
C          4.14283        1.49839       -0.49650
H          3.40164        2.23281       -0.14289
H          5.14163        1.89793       -0.26062
H          4.05065        1.42650       -1.59056
C          4.06467        0.26261        1.68645
H          3.92472       -0.71122        2.17937
H          5.05852        0.64837        1.96327
H          3.31197        0.95780        2.09083
