39
Imidazole_H6_deriv1_Int2_Sub6.log	Energy: -631973.0622766
C          0.35695       -0.36918       -0.29568
C          1.01099       -1.42511       -0.92513
N          1.38328        0.41178        0.20551
C          0.43523       -2.56718       -1.69166
N          2.36871       -1.28444       -0.78347
C          2.56739       -0.16940       -0.11498
H          1.23429        1.31833        0.63166
C          3.90286        0.40072        0.29058
O         -2.36441       -1.50722       -0.08612
C         -2.01390       -2.46065        0.61565
O         -0.85775       -2.54240        1.19918
C         -2.91244       -3.63088        0.82371
H         -2.89060       -3.93717        1.87809
H         -3.93117       -3.38887        0.50389
H         -2.52870       -4.47342        0.22782
H         -0.26849       -1.80037        0.86229
Pd        -1.45467        0.33783       -0.16106
O         -3.03255        1.91222        0.01296
C         -2.08446        2.72468        0.00602
O         -0.88165        2.27766       -0.06893
C         -2.29591        4.20392        0.05109
H         -2.17097        4.60976       -0.96454
H         -3.30846        4.43192        0.40438
H         -1.54140        4.67730        0.69343
C          5.01074       -0.42428       -0.36059
H          5.99595       -0.03346       -0.06259
H          4.93969       -1.47937       -0.06298
H          4.93346       -0.39100       -1.45659
C          4.00124        1.86083       -0.17090
H          3.22827        2.49414        0.29321
H          4.97987        2.28343        0.10540
H          3.88941        1.93781       -1.26280
C          4.03449        0.33254        1.81933
H          5.00568        0.74080        2.14109
H          3.24328        0.91277        2.31979
H          3.96524       -0.70771        2.17141
H          0.95248       -2.66333       -2.65767
H         -0.63444       -2.41702       -1.89143
H          0.56932       -3.52432       -1.16076
