52
Imidazole_H6_deriv1_Int2_Sub3.log	Energy: -754472.8410820
C         -0.24066        0.37537        0.11296
C          1.12971        0.47984       -0.11393
N         -0.64394        1.68255        0.33122
C          2.11226       -0.58164       -0.49869
N          1.52202        1.78886       -0.01289
C          0.43863        2.49251        0.24244
H         -1.61225        1.96024        0.43082
C          0.41511        3.98702        0.44623
O         -0.47918       -2.52304        0.65935
C          0.23255       -2.47461        1.66726
O          0.54691       -1.37213        2.27554
C          0.82760       -3.71161        2.24521
H          0.82968       -3.65718        3.34139
H          0.28703       -4.59535        1.89041
H          1.87629       -3.76948        1.91225
H          0.27338       -0.59400        1.69788
Pd        -1.63111       -0.98174       -0.07176
O         -3.66317       -1.78148       -0.53833
C         -3.95458       -0.60185       -0.82686
O         -3.05788        0.30988       -0.69905
C         -5.30113       -0.21368       -1.34721
H         -5.23891       -0.10634       -2.44108
H         -6.03819       -0.98937       -1.10795
H         -5.60513        0.75695       -0.93349
C          1.09229        4.64506       -0.76138
H          1.16232        5.73490       -0.61779
H          2.10378        4.23713       -0.89587
H          0.52495        4.45287       -1.68495
C         -1.01961        4.49638        0.58421
H         -1.52344        4.06291        1.46337
H         -1.02135        5.58880        0.71414
H         -1.61913        4.26828       -0.31161
C          1.20981        4.30974        1.71894
H          1.26025        5.39866        1.87867
H          0.74089        3.85342        2.60467
H          2.23306        3.91659        1.63596
H          1.59285       -1.55543       -0.46449
C          3.31735       -0.62657        0.44801
H          2.97644       -0.81041        1.47957
H          3.78107        0.37452        0.45005
C          4.33678       -1.67690        0.02351
H          5.20211       -1.66554        0.70638
H          3.88495       -2.68332        0.11439
C          4.79095       -1.46694       -1.41665
H          5.50021       -2.25553       -1.71717
H          5.34026       -0.51050       -1.48291
C          3.60134       -1.42542       -2.36942
H          3.11566       -2.41866       -2.38618
H          3.94036       -1.23129       -3.40011
C          2.58117       -0.37589       -1.94587
H          3.01997        0.63409       -2.02015
H          1.70656       -0.38763       -2.61603
