36
Imidazole_H6_deriv1_Int2_Sub9.log	Energy: -794067.1746465
C         -0.23427       -0.58519       -0.55050
C          0.20806       -1.78078       -1.10198
N          0.92834        0.09704       -0.27139
H         -0.39272       -2.60150       -1.49318
N          1.57449       -1.82117       -1.13980
C          1.98301       -0.67807       -0.63787
H          0.95524        1.03215        0.12040
C          3.42256       -0.24009       -0.54173
O         -3.04245       -1.39143       -0.20683
C         -2.83332       -2.39029        0.48546
O         -1.70093       -2.64049        1.07401
C         -3.88962       -3.41968        0.69450
H         -3.99216       -3.62586        1.76919
H         -4.83999       -3.07822        0.27223
H         -3.57534       -4.35725        0.21188
H         -1.01227       -1.99599        0.75511
Pd        -1.91702        0.33150       -0.23412
O         -3.25990        2.07273        0.13904
C         -2.22025        2.76255        0.09196
O         -1.09460        2.17271       -0.10704
C         -2.23386        4.24993        0.23097
H         -2.10095        4.70053       -0.76450
H         -3.19028        4.58269        0.65089
H         -1.39537        4.57932        0.85921
C          4.33650       -1.42864       -0.83430
H          5.38923       -1.11623       -0.80235
H          4.17483       -2.23678       -0.10924
H          4.10226       -1.82851       -1.82836
C          3.69033        0.90573       -1.52795
H          3.03346        1.76652       -1.33930
H          4.73437        1.24376       -1.45748
H          3.50467        0.55032       -2.55068
C          3.70499        0.25751        0.87667
F          4.98256        0.61579        1.02725
F          2.96366        1.34021        1.18193
F          3.43675       -0.66944        1.79629
