27
Imidazole_H6_Int2_Sub6.log	Energy: -533370.4145588
C         -0.66806        1.12985       -0.02485
C         -1.90477        1.48649        0.51248
N         -0.27697        2.24595       -0.74039
C         -2.79715        0.70342        1.41516
N         -2.24274        2.75522        0.11598
C         -1.24517        3.18309       -0.61932
H          0.63326        2.34391       -1.17447
H         -1.17886        4.16348       -1.09248
O         -0.80326       -1.80453        0.32812
C         -1.79823       -1.94454       -0.38891
O         -2.24926       -1.02480       -1.18636
C         -2.58961       -3.20641       -0.36648
H         -2.86242       -3.49643       -1.38987
H         -2.02389       -4.00027        0.13192
H         -3.52479       -3.01905        0.18366
H         -1.76097       -0.16756       -1.00411
Pd         0.61795       -0.32639        0.15101
O          2.62880       -1.28649        0.21654
C          3.07766       -0.13842        0.01520
O          2.25121        0.83647       -0.12190
C          4.54287        0.15081       -0.04092
H          4.85614        0.57321        0.92621
H          5.10482       -0.77264       -0.22424
H          4.75499        0.89916       -0.81596
H         -3.11242        1.33262        2.26026
H         -2.28332       -0.17934        1.81923
H         -3.71553        0.37780        0.89897
