48
Imidazole_H6_deriv1_Int2_Sub4.log	Energy: -705922.5426646
C          0.26951        0.17687        0.16992
C          0.93353        1.03237       -0.70342
N          1.27122       -0.29887        1.00147
C          0.41604        1.90861       -1.82264
N          2.27677        1.06312       -0.39146
C          2.45520        0.26523        0.63147
H          1.12289       -0.93233        1.77471
C          3.76392       -0.04150        1.31350
O         -1.09896       -2.28469       -0.38060
C         -0.31220       -2.60451       -1.27690
O          0.55402       -1.80464       -1.81555
C         -0.30683       -3.99278       -1.82382
H          0.69414       -4.43042       -1.69892
H         -1.06065       -4.60390       -1.31732
H         -0.51084       -3.95360       -2.90386
H          0.54151       -0.90963       -1.34713
Pd        -1.57311       -0.43288        0.38264
O         -3.71818       -0.46541        0.87910
C         -3.56445        0.72103        1.25410
O         -2.40020        1.24755        1.17486
C         -4.69470        1.54636        1.77880
H         -4.85931        2.40129        1.10653
H         -5.60768        0.94374        1.84759
H         -4.42866        1.95311        2.76475
C          4.86378        0.80113        0.67153
H          5.83075        0.58723        1.15236
H          4.94529        0.58744       -0.40313
H          4.64654        1.87357        0.77330
C          3.65675        0.29357        2.80730
H          2.87959       -0.30471        3.30944
H          4.61119        0.08604        3.31589
H          3.41183        1.35593        2.95511
C          4.08431       -1.53332        1.13825
H          5.04801       -1.77888        1.61153
H          3.31528       -2.17308        1.60025
H          4.14752       -1.79656        0.07152
C         -1.06824        1.67198       -2.09320
H         -1.40622        2.31842       -2.91829
H         -1.26775        0.62891       -2.38926
H         -1.67984        1.89922       -1.20741
C          0.62765        3.37019       -1.40350
H          1.68870        3.55269       -1.17987
H          0.31371        4.05496       -2.20790
H          0.04178        3.60255       -0.50099
C          1.22805        1.62106       -3.09185
H          0.93232        2.30364       -3.90445
H          2.30195        1.74860       -2.89503
H          1.06766        0.58805       -3.44053
