33
Imidazole_H6_Int2_Sub5.log	Energy: -582669.7665338
C          0.43512       -0.92780       -0.40048
C          1.74751       -1.19085       -0.01191
N          0.11876       -1.97507       -1.24720
C          2.61073       -0.46609        0.98097
N          2.19769       -2.33759       -0.61555
C          1.19883       -2.78521       -1.33698
H         -0.80425       -2.12806       -1.63515
H          1.21027       -3.68661       -1.95090
O          0.22824        1.94914        0.28445
C          1.10764        2.29539       -0.50965
O          1.58152        1.52641       -1.44221
C          1.72642        3.64773       -0.42811
H          1.88244        4.05333       -1.43627
H          1.10336        4.31476        0.17665
H          2.71604        3.54333        0.04388
H          1.24252        0.59198       -1.29737
Pd        -0.99290        0.30173        0.10818
O         -3.07763        0.95330        0.53779
C         -3.40131       -0.22022        0.25634
O         -2.48559       -1.04836       -0.10010
C         -4.81141       -0.70630        0.34993
H         -4.93295       -1.25436        1.29694
H         -5.50614        0.14193        0.33933
H         -5.03065       -1.40328       -0.46966
H          2.08039        0.45582        1.27231
C          2.77222       -1.32056        2.23944
H          3.39835       -0.80992        2.98820
H          1.79480       -1.53874        2.69511
H          3.24768       -2.27971        1.98358
C          3.96932       -0.10490        0.38291
H          3.86403        0.56120       -0.48682
H          4.60972        0.39418        1.12717
H          4.48001       -1.01793        0.04196
