49
Imidazole_H6_deriv1_Int2_Sub11.log	Energy: -729816.8687385
C         -0.70940       -0.19144       -0.73796
C         -0.05755       -1.04493       -1.61918
N          0.26797        0.71441       -0.38092
H         -0.47732       -1.89166       -2.16264
N          1.24952       -0.67712       -1.77395
C          1.41993        0.39132       -1.02312
H          0.09185        1.52010        0.20744
C          2.73027        1.11963       -0.85804
O         -3.12148       -1.82769       -0.37785
C         -2.54366       -2.83797        0.03100
O         -1.30701       -2.85458        0.43042
C         -3.23995       -4.15433        0.08585
H         -3.10009       -4.60205        1.07973
H         -4.30414       -4.02988       -0.13824
H         -2.77642       -4.83352       -0.64537
H         -0.87481       -1.98214        0.20334
Pd        -2.51434        0.11817       -0.09140
O         -4.20848        1.29384        0.78071
C         -3.40097        2.24476        0.81541
O         -2.19753        2.05414        0.40389
C         -3.78544        3.60869        1.29098
H         -3.92278        4.26311        0.41658
H         -4.72438        3.56294        1.85506
H         -2.98164        4.03791        1.90405
C          3.20775        1.51497       -2.26168
H          4.16050        2.06300       -2.22373
H          3.33128        0.61966       -2.88703
H          2.46483        2.16405       -2.74955
C          2.54157        2.38105       -0.01323
H          2.20429        2.15668        1.01043
H          3.48556        2.93801        0.06642
H          1.80573        3.05660       -0.47750
C          3.72808        0.11431       -0.20864
H          3.78450       -0.72522       -0.92565
C          3.21879       -0.47098        1.11138
H          2.21105       -0.89401        0.97203
H          3.12289        0.33399        1.86273
C          4.15807       -1.54254        1.65479
H          3.77668       -1.93136        2.61316
H          4.16910       -2.39744        0.95502
C          5.57665       -1.01161        1.82106
H          6.25105       -1.81051        2.17035
H          5.58291       -0.23388        2.60668
C          6.09073       -0.40978        0.51903
H          6.19306       -1.21091       -0.23502
H          7.09882        0.01293        0.66088
C          5.14478        0.66020       -0.01941
H          5.12390        1.50696        0.69027
H          5.53888        1.05586       -0.96780
