45
Imidazole_H6_deriv1_Int2_Sub5.log	Energy: -681272.5520677
C         -0.29527        0.07859       -0.06505
C         -1.13851        1.06353       -0.57345
N         -1.16187       -0.90896        0.37442
C         -0.79391        2.34080       -1.28395
N         -2.44617        0.68377       -0.42190
C         -2.43435       -0.50786        0.13776
H         -0.85642       -1.81234        0.71360
C         -3.66768       -1.29787        0.49901
O          2.22054        1.60395        0.27287
C          1.73789        2.37493        1.10798
O          0.60182        2.17568        1.70247
C          2.43320        3.64034        1.47493
H          2.35319        3.81542        2.55578
H          3.47966        3.60565        1.15461
H          1.92182        4.47235        0.96582
H          0.13066        1.40569        1.25445
Pd         1.61265       -0.33064       -0.08090
O          3.42963       -1.62279       -0.19114
C          2.62767       -2.57265       -0.31218
O          1.36615       -2.32865       -0.29173
C          3.08101       -3.98300       -0.51241
H          3.00492       -4.22923       -1.58269
H          4.12482       -4.09438       -0.19576
H          2.42882       -4.67527        0.03632
C         -4.54338       -1.41644       -0.75366
H         -5.49108       -1.92462       -0.51511
H         -4.76530       -0.41786       -1.15519
H         -4.03066       -1.99076       -1.54048
C         -3.29431       -2.68917        1.01068
H         -2.68761       -2.63657        1.92927
H         -4.20379       -3.25841        1.25368
H         -2.73637       -3.26378        0.25402
C         -4.42906       -0.52729        1.58613
H         -5.36623       -1.04581        1.84427
H         -3.82446       -0.43324        2.50170
H         -4.67058        0.48541        1.23321
H          0.29966        2.46982       -1.22494
C         -1.16378        2.21972       -2.76328
H         -0.91722        3.14299       -3.31119
H         -0.62823        1.38244       -3.23518
H         -2.24331        2.03120       -2.86607
C         -1.48413        3.54234       -0.64040
H         -1.17506        3.67166        0.40791
H         -1.25584        4.47086       -1.18715
H         -2.57431        3.39338       -0.64939
