31
Indolizine_H13_Int2_Sub18.log	Energy: -883293.7532026
C         -0.53865       -0.26422       -0.88909
C         -0.85654       -0.43719       -2.24050
N         -1.67724       -0.62351       -0.18206
C         -2.18337       -0.88333       -2.36903
H         -0.15570       -0.25604       -3.05427
C         -2.70079       -1.00601       -1.08500
C         -1.93155       -0.64279        1.16890
H         -2.72683       -1.09865       -3.28619
C         -3.96042       -1.39768       -0.57927
C         -3.14581       -1.02797        1.65865
Cl        -0.67381       -0.15195        2.23313
C         -4.18547       -1.41468        0.77053
H         -4.73408       -1.68423       -1.29342
H         -3.29084       -1.02818        2.73838
H         -5.15160       -1.71985        1.17532
O          0.84517        2.10009        0.25569
C         -0.02631        2.86301       -0.16334
O         -0.96249        2.51694       -0.99366
C         -0.07752        4.28575        0.28277
H         -0.96568        4.42336        0.91808
H          0.82542        4.53686        0.84859
H         -0.19196        4.94603       -0.58777
H         -0.87817        1.53613       -1.19548
Pd         1.24540        0.11538       -0.16212
O          3.33676       -0.16977        0.39345
C          3.19254       -1.36084        0.02228
O          2.05954       -1.72674       -0.44111
C          4.29341       -2.36517        0.13412
H          5.26028       -1.85813        0.23702
H          4.11761       -2.98444        1.02710
H          4.28963       -3.03009       -0.73963
