34
Indole_H14_Int2_Sub6.log	Energy: -619644.4150261
C         -0.47059       -0.65613        0.21976
C         -1.74314       -0.48465       -0.44641
C         -0.62684       -1.72251        1.09257
C         -2.62877       -1.46154        0.08435
C         -2.22103        0.39856       -1.42776
C          0.35555       -2.35532        2.01179
N         -1.92129       -2.19053        1.00693
C         -3.95924       -1.56411       -0.32896
C         -3.54269        0.29879       -1.84169
H         -1.55165        1.14427       -1.86329
H         -2.29362       -2.95389        1.55359
C         -4.40362       -0.67157       -1.29648
H         -4.62761       -2.31971        0.09110
H         -3.92156        0.97754       -2.60948
H         -5.43825       -0.72810       -1.64282
O          0.22312        2.12266       -0.02978
C         -0.57586        2.45917        0.84855
O         -1.05077        1.64686        1.74279
C         -1.08649        3.85681        0.92561
H         -2.10575        3.86816        0.50851
H         -1.15243        4.18027        1.97256
H         -0.44701        4.52759        0.34242
H         -0.79388        0.71225        1.48006
Pd         1.19290        0.30828       -0.15916
O          3.33433        0.69518       -0.62111
C          3.47079       -0.54791       -0.58280
O          2.45393       -1.27932       -0.31313
C          4.77907       -1.21489       -0.86936
H          4.75038       -1.62673       -1.88977
H          5.59888       -0.49016       -0.79926
H          4.93717       -2.05301       -0.17753
H          0.35060       -3.45160        1.90098
H          0.13840       -2.12693        3.06909
H          1.36445       -1.99813        1.77128
