50
Indole_H13_deriv1_Int2_Sub3.log	Energy: -766790.4221144
C          0.17206        0.77448       -0.20101
C         -1.11361        0.29085        0.04001
N          0.10704        2.11440       -0.48756
C         -2.01378        1.42918       -0.11099
C         -1.31792       -1.10774        0.56873
C         -1.18836        2.54812       -0.43321
H          0.92019        2.70285       -0.60389
C         -3.41290        1.65547       -0.00629
C         -1.67407        3.83983       -0.65092
C         -3.88047        2.95208       -0.21545
C         -4.41889        0.58296        0.28845
C         -3.03904        4.02981       -0.53248
H         -0.99709        4.66087       -0.89690
H         -4.95528        3.13276       -0.13026
H         -3.46862        5.02254       -0.68515
O          1.50596       -1.69932       -1.19449
C          0.76702       -1.82238       -2.17508
O         -0.12755       -0.95145       -2.52835
C          0.82932       -3.04450       -3.02608
H          0.02825       -3.72653       -2.69893
H          0.64189       -2.78864       -4.07658
H          1.79595       -3.54430       -2.90228
H         -0.23965       -0.26357       -1.80263
Pd         1.94367       -0.02674       -0.07371
O          4.09648       -0.17356        0.47689
C          3.93982        0.95134        0.99919
O          2.78804        1.51490        0.92953
C          5.03779        1.65442        1.73028
H          6.00942        1.22279        1.46236
H          5.01286        2.73022        1.51150
H          4.87680        1.53092        2.81222
H         -4.14388       -0.02390        1.16209
H         -4.53215       -0.10571       -0.56414
H         -5.40485        1.02595        0.48482
H         -0.32140       -1.57916        0.48941
C         -2.27379       -2.02644       -0.20263
H         -2.02199       -2.02184       -1.27463
H         -3.30256       -1.64724       -0.13179
C         -2.23386       -3.44558        0.35536
H         -2.93322       -4.09306       -0.19875
H         -1.22475       -3.87214        0.20146
C         -2.55960       -3.46344        1.84516
H         -2.50530       -4.49115        2.23984
H         -3.60426       -3.13126        1.98745
C         -1.62929       -2.54278        2.62760
H         -0.59998       -2.94239        2.57618
H         -1.90374       -2.53490        3.69506
C         -1.63562       -1.12324        2.07102
H         -2.61890       -0.65624        2.25105
H         -0.89817       -0.49680        2.59712
