43
Indole_H13_deriv1_Int2_Sub13.log	Energy: -693591.9047728
C         -0.32476       -0.18154       -0.21404
C         -1.22026        0.04469       -1.25213
N         -1.02315       -0.63831        0.88382
C         -2.52817       -0.31477       -0.78040
H         -0.94944        0.35488       -2.26010
C         -2.36660       -0.74029        0.56140
C         -0.46540       -1.03282        2.17346
C         -3.80460       -0.30515       -1.37870
C         -3.45565       -1.16430        1.33218
C         -4.87666       -0.72841       -0.59992
C         -3.97154        0.14412       -2.79780
C         -4.70626       -1.15045        0.73087
H         -3.33981       -1.49892        2.36456
H         -5.87930       -0.73466       -1.03598
H         -5.57807       -1.47630        1.30310
O          1.36720        2.13692        0.24279
C          0.43451        2.94421        0.26843
O         -0.78324        2.68740       -0.08958
C          0.65861        4.33939        0.75081
H          0.28072        5.05284        0.00521
H          0.07742        4.49397        1.67229
H          1.72257        4.50809        0.94550
H         -0.88755        1.73354       -0.40621
Pd         1.58971        0.16024       -0.28535
O          3.75466       -0.14166       -0.60268
C          3.46670       -1.33649       -0.84562
O          2.24019       -1.70146       -0.78503
C          4.50131       -2.35125       -1.21144
H          5.50509       -1.91766       -1.13479
H          4.40897       -3.22646       -0.55294
H          4.32097       -2.69621       -2.24028
H         -3.38136       -0.48309       -3.48602
H         -3.62058        1.18076       -2.93174
H         -5.02291        0.09859       -3.11414
H         -1.34041       -1.25486        2.80134
C          0.36105       -2.30608        2.05019
H          0.72464       -2.62386        3.03904
H         -0.24627       -3.11836        1.62504
H          1.22651       -2.15534        1.38793
C          0.28806        0.10869        2.84235
H         -0.33883        1.01186        2.89192
H          0.56849       -0.17441        3.86768
H          1.21172        0.35584        2.29607
