35
Indolizine_H13_Int2_Sub32.log	Energy: -666789.2487909
C         -0.29976        0.32959       -0.47717
C         -0.92463        1.12650       -1.44555
N         -1.30392       -0.43665        0.09411
C         -2.30854        0.87445       -1.44458
H         -0.40070        1.82794       -2.09427
C         -2.53735       -0.10061       -0.47540
C         -1.19667       -1.41335        1.05196
H         -3.06846        1.33253       -2.07244
C         -3.70568       -0.75569        0.00699
C         -2.31343       -2.05948        1.48857
H         -0.18524       -1.63579        1.38864
C         -3.59669       -1.72230        0.97267
O         -4.90826       -0.42310       -0.53014
H         -2.20935       -2.84054        2.24244
H         -4.49934       -2.22414        1.32459
O          2.08060        1.97990       -0.04767
C          1.45202        2.87415        0.52625
O          0.21786        2.75873        0.90692
C          2.08729        4.19133        0.81798
H          1.93907        4.44210        1.87778
H          3.15364        4.16093        0.57237
H          1.58423        4.97019        0.22563
H         -0.14318        1.89440        0.53204
Pd         1.60956       -0.01869       -0.20089
O          3.52276       -1.09822        0.00283
C          2.84687       -2.14506       -0.11922
O          1.57543       -2.04635       -0.25063
C          3.47139       -3.50217       -0.14503
H          3.52230       -3.84762       -1.18897
H          4.48642       -3.46100        0.26758
H          2.84972       -4.21629        0.41118
C         -5.46742        0.77819       -0.05143
H         -5.69129        0.71197        1.02817
H         -4.79800        1.63963       -0.21830
H         -6.40390        0.94089       -0.60131
