31
Indole_H14_Int2_Sub2.log	Energy: -883310.5684170
C         -0.50945       -0.53386        0.09700
C         -1.76445       -0.31699       -0.59088
C         -0.72765       -1.65666        0.86792
C         -2.67358       -1.32891       -0.17692
C         -2.20114        0.64961       -1.51071
Cl         0.33981       -2.46738        1.92714
N         -2.00618       -2.13629        0.71195
C         -3.98730       -1.38955       -0.64722
C         -3.50575        0.59210       -1.98099
H         -1.51270        1.42613       -1.85281
H         -2.38463       -2.93180        1.20608
C         -4.38933       -0.41609       -1.55291
H         -4.67327       -2.17312       -0.31734
H         -3.85411        1.33610       -2.70110
H         -5.40984       -0.43680       -1.94216
O          0.31481        2.23909        0.21261
C         -0.49052        2.50169        1.10963
O         -1.05114        1.60499        1.86247
C         -0.90417        3.90688        1.38316
H         -1.92882        4.04441        1.00440
H         -0.92551        4.08858        2.46595
H         -0.22878        4.60576        0.87910
H         -0.82942        0.70202        1.48964
Pd         1.18366        0.41539       -0.18990
O          3.28720        0.80546       -0.68168
C          3.38781       -0.43386       -0.84951
O          2.35885       -1.16745       -0.65513
C          4.66212       -1.07529       -1.29542
H          5.50737       -0.39744       -1.12672
H          4.81116       -2.02712       -0.76865
H          4.58939       -1.29629       -2.37134
