40
Indole_H13_Int2_Sub5.log	Energy: -668941.8811124
C          0.32355       -0.32730       -0.08536
C          1.42583        0.31392        0.47186
N          0.75386       -1.43512       -0.78389
C          2.58401       -0.46487        0.09018
C          1.37953        1.46745        1.44050
C          2.11470       -1.55612       -0.69150
H          0.12380       -2.11231       -1.19137
C          3.96416       -0.37002        0.34332
C          2.97360       -2.52151       -1.22481
C          4.81926       -1.32966       -0.17998
H          4.36643        0.44442        0.94818
C          4.32978       -2.39462       -0.95857
H          2.58878       -3.34922       -1.82496
H          5.89172       -1.25941        0.01583
H          5.02751       -3.13467       -1.35746
O         -1.52689        1.99182       -0.29891
C         -0.80466        2.63527       -1.06500
O          0.29158        2.17894       -1.58898
C         -1.13737        4.04231       -1.42724
H         -0.48943        4.71191       -0.84011
H         -0.92040        4.21999       -2.48866
H         -2.18574        4.25643       -1.19470
H          0.53764        1.30459       -1.15739
Pd        -1.59712       -0.03978        0.03103
O         -3.74838       -0.58992        0.22861
C         -3.33917       -1.76804        0.30853
O         -2.07759       -1.99572        0.22617
C         -4.26202       -2.92325        0.52767
H         -5.29065       -2.64059        0.27433
H         -3.93609       -3.78905       -0.06386
H         -4.22120       -3.21061        1.58955
H          0.33923        1.83543        1.44034
C          1.67378        0.98204        2.86213
H          1.59157        1.80794        3.58676
H          0.96851        0.19119        3.15649
H          2.69062        0.56610        2.93624
C          2.28985        2.63572        1.05654
H          2.09159        2.98912        0.03409
H          2.14546        3.48119        1.74764
H          3.35226        2.35438        1.10421
