40
Indolizine_H14_Int2_Sub5.log	Energy: -668926.8425907
C          0.47544        0.08995       -0.35356
C          1.27776       -0.61998        0.55128
C          1.31143        0.61564       -1.37187
C          0.93499       -1.45289        1.75255
N          2.57402       -0.55771        0.07831
C          2.61299        0.20673       -1.10269
H          1.00703        1.21953       -2.22398
C          3.71438       -1.12381        0.59008
C          3.86294        0.40437       -1.73620
C          4.91571       -0.93513       -0.02642
H          3.59739       -1.72281        1.49214
C          5.00026       -0.15278       -1.21317
H          3.88853        1.00282       -2.64867
H          5.80495       -1.39953        0.40167
H          5.96523       -0.00750       -1.70205
O         -1.39797        2.29019       -0.10167
C         -0.63163        2.96309        0.58990
O          0.44377        2.49861        1.15306
C         -0.88732        4.41250        0.83176
H         -0.09776        5.00036        0.34003
H         -1.86786        4.69543        0.43572
H         -0.82679        4.62246        1.90880
H          0.59982        1.56218        0.83702
Pd        -1.47099        0.24642       -0.36054
O         -3.61538       -0.34737       -0.52346
C         -3.18776       -1.51855       -0.62828
O         -1.92477       -1.72866       -0.58419
C         -4.10074       -2.68964       -0.81251
H         -5.14730       -2.37569       -0.72484
H         -3.92663       -3.13073       -1.80514
H         -3.86684       -3.46182       -0.06606
H          1.81128       -1.43132        2.42566
C         -0.23701       -0.89268        2.55226
H         -0.40032       -1.49463        3.45910
H         -0.05875        0.14826        2.86246
H         -1.16530       -0.91954        1.96074
C          0.68014       -2.90887        1.34602
H          1.53397       -3.32724        0.79103
H          0.50790       -3.54008        2.23256
H         -0.20564       -2.96121        0.69536
