40
Indole_H13_Int2_Sub21.log	Energy: -668942.7294864
C         -0.08164       -0.50055       -0.34529
C          0.39904       -1.71392       -0.81773
N          0.98441        0.24836        0.08801
C          1.82972       -1.69139       -0.67063
H         -0.18663       -2.49765       -1.29522
C          2.16177       -0.43481       -0.10196
H          0.88051        1.20484        0.40287
C          2.86044       -2.59827       -0.96543
C          3.47926       -0.04183        0.18840
C          4.16574       -2.22763       -0.68363
H          2.63672       -3.57242       -1.40653
C          4.46725       -0.97394       -0.11683
C          3.74975        1.33510        0.75578
H          4.98356       -2.91831       -0.90277
H          5.51184       -0.73198        0.08817
O         -2.86366       -1.46107       -0.12873
C         -2.65950       -2.44033        0.59275
O         -1.52107       -2.70962        1.15824
C         -3.74146       -3.42863        0.86815
H         -3.46599       -4.39639        0.42312
H         -3.82606       -3.58317        1.95318
H         -4.69111       -3.07751        0.45213
H         -0.80353       -2.11589        0.79252
Pd        -1.82887        0.31853       -0.22152
O         -3.29676        2.01554       -0.06193
C         -2.29085        2.75287       -0.07904
O         -1.12445        2.21467       -0.15438
C         -2.38529        4.24431       -0.04381
H         -3.38424        4.55361        0.28523
H         -1.61082        4.65839        0.61570
H         -2.20266        4.63479       -1.05666
H          2.97679        1.51704        1.52699
C          5.10370        1.46250        1.44106
H          5.19931        2.44833        1.92076
H          5.24186        0.69098        2.21315
H          5.92981        1.37106        0.71826
C          3.58404        2.40692       -0.32718
H          2.59740        2.35477       -0.81168
H          3.70343        3.41723        0.09514
H          4.34282        2.27278       -1.11392
