40
Indole_H14_Int2_Sub5.log	Energy: -668944.0616262
C          0.49010        0.38461       -0.07877
C          1.76145        0.11700       -0.71364
C          0.58589        1.65199        0.47493
C          2.58513        1.25409       -0.49311
C          2.28545       -0.97095       -1.42934
C         -0.45065        2.45946        1.19473
N          1.84180        2.16140        0.22027
C          3.90186        1.31984       -0.95510
C          3.59278       -0.90750       -1.89278
H          1.66225       -1.84733       -1.62376
H          2.17712        3.05660        0.54589
C          4.39304        0.22577       -1.65665
H          4.52388        2.19994       -0.77460
H          4.00823       -1.74601       -2.45668
H          5.41778        0.24827       -2.03480
O         -0.10946       -2.36930        0.51117
C          0.70551       -2.40030        1.43788
O          1.17215       -1.34272        2.02690
C          1.24415       -3.69619        1.93995
H          2.26706       -3.81444        1.54960
H          1.30784       -3.68043        3.03588
H          0.62205       -4.52708        1.59130
H          0.88813       -0.53666        1.49519
Pd        -1.12774       -0.71511       -0.17488
O         -3.25546       -1.27903       -0.54485
C         -3.41061       -0.08666       -0.88933
O         -2.41196        0.71434       -0.83546
C         -4.72086        0.43588       -1.38843
H         -4.66336        0.55321       -2.48133
H         -5.52824       -0.26441       -1.14392
H         -4.92008        1.42708       -0.95915
H         -1.27924        1.76128        1.39131
C          0.06089        2.99880        2.52992
H         -0.74360        3.51974        3.07087
H          0.43843        2.19049        3.17445
H          0.87725        3.72794        2.39204
C         -0.99496        3.57196        0.29607
H         -1.43403        3.14072       -0.61374
H         -1.77536        4.14543        0.82052
H         -0.20016        4.27778        0.00377
