40
Indolizine_H13_Int2_Sub29.log	Energy: -668927.5029754
C         -0.01344        0.37482       -0.46519
C         -0.60455        1.19534       -1.43312
N         -1.05292       -0.32166        0.13115
C         -2.00066        1.02573       -1.40377
H         -0.05218        1.85939       -2.09735
C         -2.27924        0.07341       -0.42126
C         -0.98247       -1.27380        1.11319
H         -2.73495        1.54295       -2.01641
C         -3.48698       -0.49589        0.07932
C         -2.12697       -1.83786        1.58672
H          0.02086       -1.54282        1.44097
C         -3.39329       -1.44306        1.07041
C         -4.79685        0.00313       -0.48842
H         -2.05840       -2.60102        2.36280
H         -4.29505       -1.90768        1.47168
O          2.46685        1.88226       -0.07716
C          1.89751        2.81829        0.49230
O          0.66107        2.78327        0.88002
C          2.61524        4.09575        0.76998
H          2.49245        4.36089        1.82955
H          3.67546        3.99853        0.51535
H          2.15532        4.90084        0.17768
H          0.24385        1.93928        0.51500
Pd         1.87479       -0.08519       -0.21108
O          3.72209       -1.28193       -0.02326
C          2.97978       -2.28448       -0.12836
O          1.71553       -2.10758       -0.24510
C          3.51724       -3.67877       -0.15011
H          3.52813       -4.03710       -1.19088
H          4.53974       -3.69785        0.24528
H          2.86151       -4.34669        0.42414
H         -4.63736        0.13310       -1.57373
C         -5.95226       -0.97306       -0.31008
H         -6.84704       -0.60344       -0.83326
H         -5.70886       -1.96851       -0.71059
H         -6.22382       -1.08985        0.75117
C         -5.14615        1.37528        0.09659
H         -4.32692        2.09506       -0.04402
H         -6.05063        1.78583       -0.37917
H         -5.33753        1.29232        1.17818
