43
Indole_H14_Int2_Sub4.log	Energy: -693593.0975114
C          0.53874        0.30333       -0.15406
C          1.72772       -0.16406       -0.83175
C          0.81479        1.59604        0.27943
C          2.68647        0.88022       -0.77066
C          2.07565       -1.36841       -1.46435
C         -0.05371        2.62429        0.97420
N          2.10009        1.92439       -0.10404
C          3.96869        0.74885       -1.31073
C          3.34670       -1.50213       -2.00592
H          1.34732       -2.18038       -1.53198
H          2.56302        2.78791        0.13763
C          4.28383       -0.45431       -1.92898
H          4.69664        1.56166       -1.25197
H          3.62648       -2.43234       -2.50597
H          5.27628       -0.58831       -2.36569
O         -0.26053       -2.24929        0.94102
C          0.57520       -2.17688        1.84626
O          1.18499       -1.08371        2.18512
C          0.96774       -3.38865        2.62161
H          1.96945       -3.70159        2.28860
H          1.03646       -3.14546        3.69025
H          0.25346       -4.19986        2.44668
H          0.96634       -0.37358        1.50161
Pd        -1.13541       -0.72245       -0.12804
O         -3.23831       -1.32009       -0.54184
C         -3.33907       -0.22401       -1.13681
O         -2.32463        0.55725       -1.17833
C         -4.60250        0.20722       -1.81183
H         -5.40619       -0.51139       -1.61393
H         -4.88674        1.20851       -1.45842
H         -4.42652        0.28035       -2.89525
C         -0.99341        1.94312        1.97238
H         -1.63099        2.69535        2.46211
H         -1.65042        1.21978        1.46642
H         -0.43206        1.40918        2.75508
C          0.80975        3.63856        1.73421
H          1.43122        4.24780        1.05724
H          0.16293        4.34287        2.27816
H          1.46652        3.14739        2.46950
C         -0.88300        3.35791       -0.09310
H         -1.50405        4.13797        0.37708
H         -0.22693        3.84348       -0.83214
H         -1.53757        2.65281       -0.62427
