43
Indole_H13_deriv1_Int2_Sub5.log	Energy: -693590.1705688
C          0.15407       -0.36470       -0.15734
C          1.27024        0.23049        0.42985
N          0.55568       -1.43562       -0.91348
C          2.42529       -0.54797       -0.00630
C          1.10390        1.30727        1.48144
C          1.91347       -1.58522       -0.84135
H         -0.08152       -2.07066       -1.37305
C          3.82949       -0.50803        0.20466
C          2.70842       -2.55439       -1.45795
C          4.60841       -1.48833       -0.40856
C          4.52393        0.53928        1.02279
C          4.07087       -2.49524       -1.22529
H          2.26491       -3.32676       -2.09015
H          5.68912       -1.46556       -0.24535
H          4.73565       -3.23439       -1.67811
O         -1.65066        1.97920       -0.46232
C         -0.88118        2.60306       -1.19787
O          0.25432        2.14497       -1.62644
C         -1.20341        3.99238       -1.63314
H         -0.61915        4.69140       -1.01427
H         -0.89942        4.14142       -2.67737
H         -2.27090        4.19499       -1.49671
H          0.47940        1.28261       -1.15594
Pd        -1.75766       -0.02693       -0.00742
O         -3.91445       -0.49528        0.27790
C         -3.53831       -1.67831        0.42774
O         -2.28757       -1.95071        0.33007
C         -4.48979       -2.78612        0.74697
H         -5.51659       -2.48533        0.50746
H         -4.21045       -3.69706        0.20111
H         -4.42347       -3.00916        1.82290
H          4.07770        0.65771        2.02010
H          4.48543        1.52338        0.52941
H          5.58294        0.28039        1.15845
H          0.03285        1.56837        1.42888
C          1.31923        0.74484        2.88815
H          1.10196        1.50727        3.65346
H          0.65968       -0.11791        3.06217
H          2.35461        0.40374        3.03807
C          1.87070        2.61374        1.26594
H          1.77524        2.97674        0.23202
H          1.47853        3.39311        1.93857
H          2.94108        2.51199        1.48210
