37
Indole_H13_deriv1_Int2_Sub6.log	Energy: -644294.6372500
C          0.30071       -0.22848        0.07119
C          1.38530        0.43119        0.64167
N          0.76434       -1.30131       -0.65567
C          2.57051       -0.28808        0.22125
C          1.30817        1.57724        1.60168
C          2.12923       -1.37571       -0.57934
H          0.15301       -1.98987       -1.07332
C          3.95613       -0.11927        0.45120
C          3.00788       -2.29999       -1.15303
C          4.81939       -1.04747       -0.12476
C          4.49577        1.01280        1.27596
C          4.35998       -2.11980       -0.91046
H          2.64089       -3.12743       -1.76408
H          5.89445       -0.93547        0.03999
H          5.08362       -2.81860       -1.33674
O         -1.58332        2.06801       -0.01226
C         -0.86079        2.79096       -0.70372
O          0.26218        2.41242       -1.23174
C         -1.23187        4.21031       -0.97022
H         -0.54746        4.86464       -0.40892
H         -1.09676        4.43479       -2.03708
H         -2.26408        4.39811       -0.65755
H          0.51936        1.50564       -0.88101
Pd        -1.62626        0.01474        0.14691
O         -3.77417       -0.59695        0.21368
C         -3.33837       -1.76761        0.20649
O         -2.06891       -1.95999        0.15505
C         -4.23875       -2.95830        0.28624
H         -5.26584       -2.67549        0.02700
H         -3.87374       -3.75680       -0.37332
H         -4.22272       -3.34450        1.31697
H          4.12511        0.97685        2.31204
H          4.20314        1.99086        0.86332
H          5.59354        0.98011        1.31298
H          1.74971        1.30929        2.57369
H          0.26074        1.85027        1.79237
H          1.83855        2.47387        1.24292
