34
Indole_H14_Int2_Sub22.log	Energy: -619642.5896808
C          0.32148       -0.56536       -0.31949
C          1.55811       -0.25975        0.36667
C          0.64097       -1.52244       -1.26242
C          2.57418       -1.05593       -0.22476
C          1.90398        0.60955        1.41598
H         -0.01250       -2.04206       -1.96124
N          1.98367       -1.81277       -1.20635
C          3.91925       -1.01062        0.17732
C          3.22703        0.66530        1.82501
H          1.13631        1.21546        1.90253
H          2.46274       -2.47070       -1.80336
C          4.21518       -0.13034        1.21290
C          4.95256       -1.87162       -0.48333
H          3.51406        1.32977        2.64349
H          5.24883       -0.06164        1.56308
O         -0.79085        2.03735        0.19030
C         -0.04883        2.58635       -0.62799
O          0.53333        1.96339       -1.60832
C          0.26381        4.03938       -0.52782
H          1.27176        4.13866       -0.09508
H          0.28438        4.49443       -1.52659
H         -0.46205        4.53967        0.12165
H          0.40941        0.98045       -1.47149
Pd        -1.47668        0.09544        0.07705
O         -3.66072        0.09490        0.46923
C         -3.59645       -1.14259        0.28852
O         -2.46972       -1.67133       -0.01047
C         -4.79083       -2.03053        0.44213
H         -4.75597       -2.49935        1.43759
H         -5.71321       -1.44317        0.35962
H         -4.76835       -2.83332       -0.30653
H          5.02318       -1.66333       -1.56473
H          4.71644       -2.94377       -0.37245
H          5.94731       -1.70480       -0.04828
