47
Indole_H14_Int2_Sub11.log	Energy: -742142.1391340
C         -0.26692       -1.57231        0.19326
C         -1.51251       -1.13893       -0.41512
C         -0.41225       -2.92889        0.41209
C         -2.34838       -2.28505       -0.51708
C         -1.99225        0.11149       -0.86308
H          0.30240       -3.64071        0.82227
N         -1.65009       -3.35049       -0.00806
C         -3.63935       -2.22864       -1.05030
C         -3.27652        0.15349       -1.39919
C         -1.14872        1.35063       -0.72030
H         -2.00317       -4.29336        0.06726
C         -4.08601       -0.99261       -1.49302
H         -4.26817       -3.11933       -1.11813
H         -3.67410        1.10656       -1.75749
H         -5.08740       -0.90547       -1.92138
O          0.91735        0.44862        2.05556
C         -0.00951        0.30213        2.85565
O         -0.91714       -0.61735        2.75377
C         -0.16560        1.23343        4.01047
H         -0.80524        2.06924        3.68481
H         -0.65688        0.73226        4.85306
H          0.81073        1.63912        4.29856
H         -0.76338       -1.13461        1.90226
Pd         1.42023       -0.56832        0.33263
O          3.42313        0.17797       -0.22826
C          3.33529       -0.59412       -1.21236
O          2.29216       -1.32290       -1.33950
C          4.39875       -0.66499       -2.26179
H          4.08597       -0.05415       -3.12262
H          5.34400       -0.26917       -1.87131
H          4.52027       -1.69854       -2.61164
H         -0.15341        1.01681       -0.37232
C         -1.69496        2.30068        0.35099
H         -1.87033        1.74186        1.28541
H         -2.68666        2.67139        0.03387
C         -0.75051        3.47543        0.57797
H         -1.16958        4.16678        1.32831
H          0.19947        3.09443        0.99455
C         -0.46699        4.21709       -0.72496
H          0.25484        5.03184       -0.55236
H         -1.39919        4.69661       -1.07585
C          0.04642        3.27315       -1.80811
H          1.03381        2.87780       -1.50733
H          0.20470        3.82246       -2.75044
C         -0.90408        2.10100       -2.03049
H         -1.86367        2.47070       -2.43511
H         -0.49399        1.40487       -2.77946
