34
Indolizine_H14_Int2_Sub14.log	Energy: -619626.6753021
C         -0.47648       -0.24756        0.03427
C         -1.13599       -1.07872       -0.87162
C         -1.44923        0.29074        0.92552
H         -0.74325       -1.70218       -1.67135
N         -2.46929       -1.07624       -0.56878
C         -2.68576       -0.23393        0.53654
C         -1.22576        1.24467        2.05207
C         -3.50107       -1.74573       -1.17279
C         -4.01136       -0.08556        1.01045
C         -4.77533       -1.60174       -0.71099
H         -3.22998       -2.37948       -2.01830
C         -5.04275       -0.75439        0.40352
H         -4.18607        0.56943        1.86597
H         -5.58123       -2.14513       -1.20587
H         -6.06551       -0.64374        0.76814
O          1.32305        2.04928        0.06758
C          0.55707        2.76079       -0.58412
O         -0.46206        2.31026       -1.25412
C          0.73990        4.23954       -0.64057
H         -0.07393        4.71827       -0.07495
H          1.70608        4.51741       -0.20725
H          0.66250        4.58465       -1.68066
H         -0.57933        1.34114       -1.04819
Pd         1.46336       -0.00837        0.06856
O          3.62449       -0.53177        0.09998
C          3.23676       -1.72207        0.07229
O          1.98166       -1.96928        0.02620
C          4.19392       -2.87117        0.12126
H          4.21659       -3.26885        1.14748
H          3.85356       -3.67814       -0.54107
H          5.20176       -2.53775       -0.15362
H         -1.85991        1.00473        2.91953
H         -1.45223        2.28897        1.77002
H         -0.17921        1.21215        2.38591
