50
Indole_H13_deriv1_Int2_Sub11.log	Energy: -766792.3509154
C         -0.53397        0.38127       -0.38970
C         -1.59484        1.16121       -0.83327
N         -1.01601       -0.85864       -0.02444
C         -2.78195        0.35575       -0.76378
H         -1.50882        2.16852       -1.23756
C         -2.38132       -0.90429       -0.25482
C         -0.23744       -1.99034        0.45348
C         -4.13301        0.60055       -1.08326
C         -3.30032       -1.94125       -0.05587
C         -5.03453       -0.43901       -0.87919
C         -4.55350        1.93337       -1.62213
C         -4.62670       -1.68716       -0.37512
H         -2.99821       -2.91626        0.33038
H         -6.08941       -0.28113       -1.11959
H         -5.37091       -2.47445       -0.23359
O          1.01822        1.78514        1.62918
C          0.03963        2.10232        2.31049
O         -1.19504        1.99852        1.93442
C          0.22542        2.64074        3.69069
H         -0.35217        3.56800        3.80830
H         -0.17759        1.91234        4.41057
H          1.28755        2.81448        3.89111
H         -1.27084        1.62674        0.99796
Pd         1.31528        0.96892       -0.23893
O          3.43013        1.36426       -0.74025
C          3.20646        0.74427       -1.80571
O          2.03203        0.27760       -2.01485
C          4.26199        0.52311       -2.84064
H          5.20338        0.99247       -2.53266
H          4.40779       -0.55719       -2.98626
H          3.92603        0.93889       -3.80142
H         -4.03120        2.16432       -2.56510
H         -4.30890        2.74409       -0.91599
H         -5.63464        1.96715       -1.81583
H         -0.97626       -2.76294        0.71900
C          0.54490       -1.66992        1.72521
H         -0.15079       -1.29931        2.49616
H          1.25404       -0.85073        1.51248
C          1.32021       -2.88631        2.21646
H          1.90157       -2.62235        3.11423
H          0.61107       -3.67539        2.52736
C          2.23487       -3.43371        1.12584
H          2.77773       -4.32083        1.48961
H          3.00032       -2.67463        0.88289
C          1.44544       -3.77026       -0.13465
H          0.74799       -4.59911        0.08671
H          2.11775       -4.13816       -0.92596
C          0.66055       -2.56591       -0.64088
H          1.35130       -1.78001       -0.98877
H          0.03842       -2.83510       -1.50910
