34
Indole_H13_Int2_Sub9.log	Energy: -806389.8871691
C         -0.23227       -0.35829        0.03490
C          0.97587        0.26098        0.32647
N          0.02908       -1.60851       -0.46836
C          2.01552       -0.66520       -0.01580
H          1.10932        1.22877        0.80411
C          1.38028       -1.83684       -0.50670
H         -0.70453       -2.27255       -0.68512
C          3.42144       -0.63528        0.04135
C          2.10410       -2.95464       -0.92816
C          4.14318       -1.74462       -0.37691
C          4.10598        0.59810        0.54626
C          3.48931       -2.89305       -0.85539
H          1.59736       -3.84727       -1.30132
H          5.23274       -1.71920       -0.33230
H          4.08448       -3.75051       -1.17605
O         -1.72288        2.17775        0.19783
C         -1.07104        2.84567       -0.60840
O         -0.16589        2.35474       -1.40254
C         -1.26663        4.31836       -0.72214
H         -0.37468        4.82512       -0.32320
H         -1.35321        4.59823       -1.78111
H         -2.15423        4.62780       -0.16116
H          0.04823        1.41811       -1.14215
Pd        -2.08883        0.15180        0.20890
O         -4.29822       -0.15912        0.35141
C         -4.03521       -1.37565        0.26208
O         -2.80591       -1.73665        0.13791
C         -5.08808       -2.43373        0.32321
H         -6.07681       -1.99515        0.14452
H         -4.87391       -3.22637       -0.40608
H         -5.07331       -2.88972        1.32503
F          5.43587        0.48695        0.53417
F          3.74169        0.88763        1.80379
F          3.79019        1.67330       -0.19323
