34
Indole_H13_Int2_Sub22.log	Energy: -619644.0879902
C         -0.40432        0.19777       -0.29698
C         -1.21538        1.21967       -0.77215
N         -1.20864       -0.79361        0.20884
C         -2.57912        0.82085       -0.54948
H         -0.88359        2.11295       -1.29867
C         -2.53238       -0.45675        0.06529
H         -0.84002       -1.67667        0.53963
C         -3.82944        1.40466       -0.81115
C         -3.68043       -1.17614        0.43186
C         -4.97333        0.70669       -0.45522
H         -3.89738        2.38604       -1.28643
C         -4.89728       -0.55995        0.15501
C         -3.57182       -2.52449        1.07584
H         -5.95608        1.14239       -0.65046
H         -5.82140       -1.08067        0.42085
O          2.00631        1.89639       -0.25315
C          1.57465        2.80815        0.45644
O          0.43483        2.77484        1.07944
C          2.35326        4.06525        0.64777
H          1.79867        4.90343        0.20019
H          2.44659        4.27557        1.72269
H          3.34077        3.97421        0.18439
H         -0.10746        1.99456        0.76615
Pd         1.50525       -0.10279       -0.23633
O          3.39600       -1.30556       -0.09602
C          2.64173       -2.29776       -0.03901
O          1.36870       -2.11567       -0.07307
C          3.15945       -3.69792        0.03900
H          4.21562       -3.69593        0.33289
H          2.55833       -4.28670        0.74479
H          3.06271       -4.16694       -0.95214
H         -3.00212       -2.47677        2.01937
H         -3.05256       -3.24419        0.42045
H         -4.56344       -2.93795        1.30490
