37
Indole_H13_deriv1_Int2_Sub14.log	Energy: -644289.2062873
C         -0.32118       -0.20472       -0.10314
C         -1.30489        0.34175       -0.92102
N         -0.91985       -1.05727        0.79644
C         -2.56515       -0.21206       -0.50667
H         -1.12413        0.98391       -1.78183
C         -2.28236       -1.07804        0.57780
C         -0.26207       -1.79964        1.83943
C         -3.89208       -0.04533       -0.95075
C         -3.28609       -1.78012        1.25236
C         -4.88257       -0.75524       -0.27744
C         -4.19836        0.86489       -2.10030
C         -4.58844       -1.60512        0.80410
H         -3.06102       -2.43742        2.09421
H         -5.92193       -0.64627       -0.59909
H         -5.40336       -2.13683        1.30097
O          1.45050        2.13480        0.13129
C          0.59494        2.92424        0.53860
O         -0.66479        2.64939        0.66943
C          0.97098        4.31859        0.91739
H          0.46403        5.02451        0.24299
H          0.61177        4.52829        1.93505
H          2.05612        4.44951        0.85644
H         -0.87354        1.73609        0.29140
Pd         1.59595        0.10298       -0.15962
O          3.76945       -0.30417       -0.34759
C          3.44366       -1.50831       -0.44052
O          2.20159       -1.82256       -0.36929
C          4.44665       -2.59521       -0.65668
H          5.45728       -2.22733       -0.44386
H          4.20516       -3.46267       -0.02781
H          4.39462       -2.92226       -1.70636
H         -3.67697        0.54006       -3.01575
H         -3.86477        1.89501       -1.89208
H         -5.27548        0.89447       -2.31583
H         -0.60628       -2.84463        1.83198
H         -0.46711       -1.36834        2.83322
H          0.81835       -1.79601        1.65398
