43
Indole_H14_Int2_Sub20.log	Energy: -693588.8875943
C         -0.25842       -0.36753       -0.24624
C          0.87269        0.16143        0.48330
C          0.26817       -1.26183       -1.15408
C          2.04944       -0.44216       -0.04407
C          0.98288        1.09220        1.52866
H         -0.24629       -1.90009       -1.87056
N          1.63620       -1.30453       -1.03508
C          3.34587       -0.13732        0.42825
C          2.24470        1.40102        2.00349
H          0.08608        1.54506        1.95714
H          2.24220       -1.87639       -1.60230
C          3.39485        0.79847        1.45974
C          4.60037       -0.79243       -0.15331
H          2.36034        2.11680        2.82087
H          4.36191        1.08034        1.87605
O         -1.83996        2.00781        0.12579
C         -1.16636        2.65846       -0.67707
O         -0.43021        2.12402       -1.60443
C         -1.12664        4.14649       -0.61738
H         -0.17905        4.43995       -0.13880
H         -1.13243        4.56882       -1.63059
H         -1.96592        4.52483       -0.02454
H         -0.38324        1.13862       -1.43799
Pd        -2.16047       -0.02850        0.06229
O         -4.32325       -0.40851        0.37673
C         -4.03224       -1.61963        0.24668
O         -2.81791       -1.94684        0.00879
C         -5.05494       -2.70198        0.39192
H         -4.97781       -3.12645        1.40474
H         -6.06292       -2.29210        0.25558
H         -4.85958       -3.51021       -0.32508
C          5.87394       -0.29419        0.53269
H          6.75069       -0.78817        0.08672
H          6.00523        0.79144        0.41090
H          5.87382       -0.52323        1.60882
C          4.53434       -2.31484        0.04995
H          3.65192       -2.77535       -0.41672
H          5.42787       -2.79873       -0.37556
H          4.49116       -2.55728        1.12232
C          4.72078       -0.45197       -1.64771
H          5.61417       -0.92966       -2.08040
H          3.85141       -0.77789       -2.23655
H          4.81260        0.63565       -1.78755
