40
Indole_H14_Int2_Sub13.log	Energy: -668941.2426466
C          0.33139       -0.43543       -1.01438
C          1.58804       -0.70692       -0.33837
C          0.49997       -0.88571       -2.30996
C          2.45350       -1.30676       -1.29640
C          2.05923       -0.48735        0.97489
H         -0.21354       -0.89738       -3.13240
N          1.76159       -1.40088       -2.47665
C          3.76293       -1.69068       -0.99481
C          3.36342       -0.88065        1.26406
C          1.19376        0.19075        2.01424
H          2.13344       -1.77066       -3.33937
C          4.20145       -1.47060        0.30186
H          4.41109       -2.14660       -1.74672
H          3.75561       -0.72575        2.27247
H          5.21704       -1.75956        0.58274
O         -0.95298        2.11958       -0.15153
C         -0.06341        2.78795       -0.68205
O          0.86560        2.29111       -1.43778
C          0.02129        4.25941       -0.45060
H          0.71896        4.43276        0.38394
H          0.41925        4.76839       -1.33709
H         -0.96242        4.65250       -0.17124
H          0.75930        1.28953       -1.46905
Pd        -1.39651        0.10895       -0.24787
O         -3.44829       -0.09347        0.55495
C         -3.31308       -1.32034        0.33727
O         -2.22256       -1.74384       -0.18001
C         -4.37654       -2.31181        0.68916
H         -5.33179       -1.80056        0.85777
H         -4.47018       -3.06432       -0.10522
H         -4.08127       -2.83635        1.61073
H          0.18177        0.27140        1.57921
C          1.06434       -0.62343        3.29771
H          0.37687       -0.12926        4.00211
H          0.67231       -1.62929        3.08614
H          2.03428       -0.73944        3.80717
C          1.69225        1.60950        2.28964
H          1.82137        2.17135        1.35185
H          0.98822        2.15926        2.93433
H          2.67268        1.59378        2.79250
