43
Indolizine_H14_Int2_Sub4.log	Energy: -693572.7161921
C          0.33082        0.03384       -0.47996
C          1.26560       -0.55713        0.39030
C          1.01695        0.50252       -1.62635
C          1.08187       -1.24054        1.73520
N          2.50478       -0.46338       -0.23499
C          2.35964        0.18734       -1.47541
H          0.58459        1.00738       -2.48735
C          3.74674       -0.89280        0.16805
C          3.50313        0.39782       -2.28220
C          4.84736       -0.69173       -0.61142
H          3.80569       -1.39987        1.12564
C          4.73458       -0.03076       -1.86570
H          3.36627        0.90507       -3.23891
H          5.81227       -1.05199       -0.25247
H          5.61982        0.12631       -2.48443
O         -1.48352        2.24662        0.04848
C         -0.63132        2.90247        0.64818
O          0.51718        2.43205        1.03583
C         -0.85942        4.33936        0.97879
H         -0.15360        4.95408        0.40020
H         -1.88871        4.62444        0.73858
H         -0.64527        4.51187        2.04281
H          0.63313        1.50174        0.68280
Pd        -1.61099        0.22408       -0.35021
O         -3.77187       -0.28406       -0.45176
C         -3.39555       -1.45734       -0.67489
O         -2.14213       -1.71518       -0.71176
C         -4.36425       -2.57217       -0.91599
H         -5.38568       -2.24673       -0.68669
H         -4.30406       -2.87730       -1.97150
H         -4.08880       -3.44392       -0.30648
C         -0.38657       -1.19178        2.16594
H         -0.48935       -1.67398        3.15048
H         -0.74994       -0.15709        2.26347
H         -1.03432       -1.71960        1.45266
C          1.46172       -2.72880        1.63284
H          2.50843       -2.89798        1.34528
H          1.30131       -3.22631        2.60238
H          0.82820       -3.22499        0.88292
C          1.89277       -0.53036        2.83530
H          1.73959       -1.03749        3.80083
H          2.97436       -0.50464        2.64668
H          1.55650        0.51212        2.94510
