35
Indole_H14_Int2_Sub24.log	Energy: -666806.6468925
C          0.09495       -0.48959       -0.31416
C          1.30498       -0.08123        0.36609
C          0.48310       -1.43601       -1.24610
C          2.36376       -0.81033       -0.22292
C          1.59912        0.82833        1.40334
H         -0.13262       -2.01178       -1.93492
N          1.84098       -1.62391       -1.19061
C          3.70241       -0.65661        0.17304
C          2.91753        0.97804        1.79431
H          0.79822        1.38573        1.89291
H          2.38927       -2.24471       -1.76812
C          3.96846        0.25026        1.19124
O          4.60746       -1.41666       -0.48581
H          3.16624        1.67131        2.60146
H          4.99003        0.40510        1.53937
O         -1.20657        2.02375        0.18987
C         -0.50508        2.62394       -0.62821
O          0.11930        2.04438       -1.60899
C         -0.29482        4.09519       -0.52619
H          0.69972        4.26255       -0.08341
H         -0.29605        4.55113       -1.52469
H         -1.05913        4.54403        0.11678
H          0.06839        1.05502       -1.47010
Pd        -1.74784        0.03661        0.07833
O         -3.92803       -0.12676        0.46562
C         -3.77047       -1.35604        0.28663
O         -2.60663       -1.79945       -0.00860
C         -4.89540       -2.33105        0.43777
H         -4.82483       -2.79990        1.43131
H         -5.85908       -1.81385        0.35770
H         -4.81364       -3.12715       -0.31393
C          5.95417       -1.30450       -0.11985
H          6.33527       -0.27960       -0.27502
H          6.11443       -1.58462        0.93624
H          6.51695       -1.99482       -0.76111
