31
Indole_H13_Int2_Sub18.log	Energy: -883313.6735534
C         -0.20403        0.35706       -0.33619
C         -0.87088        1.48904       -0.78731
N         -1.13798       -0.54784        0.10671
C         -2.27922        1.25621       -0.61633
H         -0.41714        2.35665       -1.26299
C         -2.39674       -0.04262       -0.05458
H         -0.91138       -1.48501        0.41887
C         -3.44377        1.99496       -0.88146
C         -3.64514       -0.59534        0.24058
C         -4.67708        1.43275       -0.58381
H         -3.37938        2.99463       -1.31659
C         -4.78625        0.14551       -0.02551
Cl        -3.72390       -2.18779        0.92457
H         -5.59177        1.99483       -0.78507
H         -5.76372       -0.28242        0.20198
O          2.40075        1.73767       -0.18502
C          2.07615        2.67096        0.55242
O          0.93422        2.75304        1.16894
C          2.99666        3.81892        0.79020
H          2.54847        4.73230        0.37148
H          3.10720        3.97870        1.87218
H          3.96939        3.62724        0.32632
H          0.31028        2.05189        0.83044
Pd         1.65264       -0.18107       -0.24539
O          3.37375       -1.59820       -0.11255
C          2.50727       -2.49722       -0.10787
O          1.26656       -2.16196       -0.16150
C          2.85390       -3.94981       -0.07008
H          3.89555       -4.08308        0.24463
H          2.17015       -4.48555        0.60192
H          2.72571       -4.37059       -1.07913
