34
Indole_H13_deriv1_Int2_Sub2.log	Energy: -907963.5433171
C         -0.24506       -0.28588        0.01970
C         -1.37935        0.38787       -0.41086
N         -0.67202       -1.47379        0.57141
C         -2.53872       -0.40655       -0.11119
Cl        -1.37389        1.89736       -1.25508
C         -2.03407       -1.58605        0.50135
H         -0.02780       -2.20157        0.85427
C         -3.93238       -0.25214       -0.29790
C         -2.86982       -2.62167        0.93346
C         -4.74554       -1.29352        0.13691
C         -4.51940        0.97198       -0.93447
C         -4.23065       -2.45718        0.73914
H         -2.46118       -3.51962        1.40159
H         -5.82679       -1.20142        0.00464
H         -4.92017       -3.24194        1.05888
O          1.61375        2.02257        0.01555
C          0.96763        2.68990        0.82603
O          0.07602        2.19077        1.63045
C          1.14923        4.16321        0.92606
H          0.30518        4.63577        0.39948
H          1.11013        4.48303        1.97534
H          2.08879        4.46376        0.45110
H         -0.12519        1.25921        1.35192
Pd         1.68099       -0.02194       -0.11616
O          3.81181       -0.60800       -0.27096
C          3.39611       -1.78657       -0.25953
O          2.13132       -1.99297       -0.15759
C          4.30892       -2.96127       -0.38982
H          5.34234       -2.66395       -0.17628
H          3.98691       -3.76918        0.28063
H          4.25045       -3.34088       -1.42145
H         -4.15236        1.10602       -1.96366
H         -4.24408        1.88435       -0.38350
H         -5.61580        0.90549       -0.96580
