43
Indolizine_H13_Int2_Sub28.log	Energy: -693574.8437379
C         -0.16968        0.38477        0.40184
C          0.44640        1.20928        1.34674
N          0.85475       -0.29813       -0.23398
C          1.84085        1.05429        1.26374
H         -0.08441        1.86742        2.03383
C          2.10540        0.10571        0.26934
C          0.73390       -1.24254       -1.21659
H          2.57574        1.58689        1.85887
C          3.29464       -0.46071       -0.29781
C          1.85275       -1.79672       -1.75221
H         -0.28508       -1.50945       -1.49372
C          3.13785       -1.39664       -1.29439
C          4.67407       -0.03009        0.20417
H          1.75289       -2.55294       -2.53149
H          4.01195       -1.85646       -1.75324
O         -2.67557        1.86973        0.09680
C         -2.13389        2.81045       -0.49163
O         -0.91009        2.78729       -0.91826
C         -2.87279        4.08031       -0.74781
H         -2.78483        4.34622       -1.81063
H         -3.92373        3.97246       -0.46102
H         -2.40335        4.89031       -0.16983
H         -0.47295        1.94808       -0.56601
Pd        -2.06255       -0.09192        0.21917
O         -3.90676       -1.30177        0.10929
C         -3.15431       -2.29896        0.19176
O         -1.88780       -2.11299        0.25904
C         -3.68125       -3.69649        0.24171
H         -3.64642       -4.05049        1.28341
H         -4.71909       -3.72382       -0.11093
H         -3.04556       -4.36260       -0.35670
C          5.79734       -0.76165       -0.53404
H          6.76975       -0.42476       -0.14417
H          5.74169       -1.85134       -0.38987
H          5.78282       -0.55309       -1.61464
C          4.86967        1.47538       -0.03618
H          4.10913        2.08496        0.46795
H          5.85906        1.79195        0.33038
H          4.81641        1.70271       -1.11197
C          4.81176       -0.36329        1.69830
H          5.80256       -0.05189        2.06551
H          4.04974        0.13171        2.31332
H          4.71315       -1.44749        1.86055
