31
Indolizine_H13_Int2_Sub2.log	Energy: -883298.3136402
C          0.70319        0.31914        0.22010
C          1.21659        1.31798        1.06050
N          1.81721       -0.39538       -0.19370
C          2.61546        1.24987        1.13142
Cl         0.24672        2.48560        1.87347
C          2.98866        0.16490        0.33780
C          1.85995       -1.49939       -1.00230
H          3.27924        1.91135        1.68106
C          4.23177       -0.41013       -0.01575
C          3.05785       -2.06118       -1.33254
H          0.89265       -1.88405       -1.32384
C          4.27091       -1.50575       -0.83865
H          5.14279        0.03768        0.38486
H          3.06683       -2.94276       -1.97431
H          5.22657       -1.95662       -1.11244
O         -1.90178        1.48695       -0.50538
C         -1.36674        2.39186       -1.15205
O         -0.12634        2.37515       -1.52807
C         -2.13188        3.61303       -1.52926
H         -1.85159        3.94296       -2.53783
H         -3.20808        3.42521       -1.45473
H         -1.85285        4.41229       -0.82479
H          0.32818        1.60378       -1.06620
Pd        -1.13794       -0.34296        0.01603
O         -2.85559       -1.70673        0.02009
C         -2.04217       -2.60108        0.34878
O         -0.80323       -2.29103        0.46084
C         -2.46862       -4.00183        0.64151
H         -2.52888       -4.13074        1.73313
H         -3.45558       -4.19681        0.20536
H         -1.72294       -4.71291        0.26223
