34
Indolizine_H13_Int2_Sub25.log	Energy: -806372.4744276
C          0.14045        0.38250       -0.39010
C         -0.48441        1.26261       -1.28008
N         -0.87951       -0.33451        0.21354
C         -1.88146        1.10740       -1.20201
H          0.04550        1.95690       -1.93148
C         -2.12437        0.10780       -0.26620
C         -0.78309       -1.33789        1.13833
H         -2.64012        1.65820       -1.75129
C         -3.29502       -0.48920        0.27652
C         -1.90788       -1.91776        1.64362
H          0.23061       -1.63650        1.40369
C         -3.19154       -1.48345        1.21358
C         -4.63160       -0.00234       -0.20135
H         -1.80902       -2.71917        2.37580
H         -4.09363       -1.93868        1.62306
O          2.63579        1.88035       -0.12387
C          2.12215        2.80429        0.51396
O          0.92646        2.75664        1.01565
C          2.85837        4.07901        0.74683
H          2.82346        4.33170        1.81588
H          3.89357        3.98763        0.40294
H          2.34914        4.88954        0.20418
H          0.47748        1.92698        0.67120
Pd         2.03622       -0.08543       -0.22461
O          3.88787       -1.27089       -0.12710
C          3.14920       -2.27923       -0.19557
O          1.87878       -2.10762       -0.24794
C          3.69333       -3.66898       -0.24735
H          3.66486       -4.02014       -1.29028
H          4.73130       -3.68338        0.10564
H          3.06600       -4.34515        0.34842
F         -5.63818       -0.65839        0.37971
F         -4.76722       -0.15206       -1.52404
F         -4.80181        1.30012        0.05814
