43
Indole_H13_Int2_Sub20.log	Energy: -693590.7653976
C         -0.25143       -0.57587       -0.39348
C          0.15812       -1.82936       -0.82114
N          0.85973        0.13831       -0.02347
C          1.59118       -1.86624       -0.71215
H         -0.47286       -2.60709       -1.24779
C          2.00541       -0.60109       -0.21164
H          0.79975        1.11119        0.24609
C          2.55326       -2.84548       -1.00086
C          3.35853       -0.26927        0.01335
C          3.88492       -2.53759       -0.78435
H          2.25513       -3.82238       -1.38851
C          4.27197       -1.27811       -0.28961
C          3.77840        1.10215        0.54459
H          4.65750       -3.27929       -1.00062
H          5.33627       -1.09430       -0.14239
O         -3.07766       -1.37027       -0.08227
C         -2.90989       -2.33235        0.67104
O         -1.77634       -2.63888        1.22740
C         -4.03503       -3.25359        1.00038
H         -3.81523       -4.25054        0.59021
H         -4.10979       -3.36140        2.09178
H         -4.97264       -2.87141        0.58443
H         -1.03614       -2.09642        0.82909
Pd        -1.94691        0.34385       -0.25757
O         -3.30351        2.14112       -0.11945
C         -2.25313        2.80984       -0.18291
O         -1.12594        2.19386       -0.26798
C         -2.24792        4.30457       -0.19234
H         -3.21672        4.68976        0.14656
H         -1.43347        4.68500        0.43873
H         -2.06141        4.65167       -1.22015
C          5.29651        1.21022        0.69897
H          5.55833        2.20767        1.08389
H          5.68866        0.46558        1.40796
H          5.81483        1.07738       -0.26256
C          3.33361        2.19965       -0.43662
H          2.24623        2.22622       -0.59572
H          3.63727        3.19078       -0.06341
H          3.80097        2.04710       -1.42111
C          3.15377        1.33677        1.92962
H          3.44307        2.32645        2.31764
H          2.05570        1.29216        1.91707
H          3.50205        0.57437        2.64275
