40
Indole_H14_Int2_Sub21.log	Energy: -668941.0289922
C         -0.08391       -0.37973       -0.31379
C          1.08196        0.11385        0.38672
C          0.39316       -1.26463       -1.26003
C          2.21941       -0.50233       -0.19912
C          1.27171        1.02083        1.44343
H         -0.16144       -1.87611       -1.96986
N          1.76436       -1.33786       -1.19086
C          3.53830       -0.23988        0.21271
C          2.56459        1.29103        1.86119
H          0.41147        1.48995        1.92619
H          2.34723       -1.89803       -1.79504
C          3.67562        0.67386        1.25305
C          4.69611       -0.96676       -0.43785
H          2.73356        1.99061        2.68337
H          4.67444        0.92217        1.61694
O         -1.60082        2.01028        0.18926
C         -0.94689        2.67269       -0.62018
O         -0.26371        2.15342       -1.59563
C         -0.86918        4.15652       -0.51357
H          0.10424        4.41183       -0.06594
H         -0.90664        4.61291       -1.51120
H         -1.67381        4.53353        0.12629
H         -0.23142        1.16270       -1.46202
Pd        -1.96733       -0.01584        0.06951
O         -4.12599       -0.36572        0.44591
C         -3.86358       -1.57684        0.26562
O         -2.66480       -1.91845       -0.02537
C         -4.90176       -2.64440        0.41077
H         -4.79936       -3.10278        1.40643
H         -5.90557       -2.21195        0.32168
H         -4.74600       -3.43244       -0.33771
H          4.48283       -0.99791       -1.52409
C          6.03663       -0.26348       -0.27055
H          6.81620       -0.78082       -0.84993
H          5.99162        0.78126       -0.61229
H          6.36083       -0.26272        0.78198
C          4.77266       -2.41303        0.06302
H          3.81828       -2.94460       -0.06992
H          5.55717       -2.97619       -0.46686
H          5.00655       -2.43015        1.13884
