34
Indolizine_H13_Int2_Sub30.log	Energy: -619629.2669287
C         -0.50459        0.41606       -0.47181
C         -1.06186        1.27039       -1.43106
N         -1.56998       -0.25337        0.10940
C         -2.46366        1.14740       -1.41237
H         -0.48248        1.92472       -2.08186
C         -2.77675        0.19159       -0.44616
C         -1.54268       -1.21626        1.08372
H         -3.18067        1.69429       -2.01999
C         -4.00572       -0.33818        0.04011
C         -2.71099       -1.73889        1.54855
H         -0.55249       -1.52665        1.41494
C         -3.95806       -1.29145        1.02790
C         -5.28496        0.16313       -0.55046
H         -2.67535       -2.50855        2.32036
H         -4.88768       -1.71507        1.41530
O          2.02017        1.83967       -0.05536
C          1.47953        2.78802        0.52161
O          0.24121        2.78931        0.90511
C          2.23714        4.03877        0.81431
H          2.11917        4.29727        1.87607
H          3.29458        3.90980        0.56220
H          1.80558        4.86411        0.22858
H         -0.20227        1.96403        0.52970
Pd         1.36572       -0.10641       -0.20752
O          3.17177       -1.36359       -0.01475
C          2.39823       -2.34086       -0.13194
O          1.14121       -2.12230       -0.25635
C          2.89046       -3.75163       -0.15948
H          2.89729       -4.10321       -1.20259
H          3.90894       -3.80640        0.24290
H          2.20937       -4.40178        0.40558
H         -5.31790       -0.02321       -1.63634
H         -5.38616        1.25179       -0.41031
H         -6.15463       -0.32585       -0.09099
