35
Isoquinoline_H12_Int2_Sub6.log	Energy: -643531.1725269
C         -0.47689       -0.63527        0.37809
C         -1.62838       -0.56068       -0.46409
C         -0.52197       -1.39099        1.54721
C         -2.82729       -1.24695       -0.10492
C         -1.65502        0.18698       -1.67646
C         -1.72792       -2.06811        1.88334
C          0.67526       -1.51950        2.44836
C         -2.84790       -2.00333        1.09192
C         -3.93952       -1.12661       -0.97307
H         -0.74275        0.71235       -1.98696
N         -2.69801        0.28974       -2.46285
H         -1.75135       -2.65647        2.80505
H         -3.76165       -2.53089        1.37589
H         -4.87495       -1.63870       -0.73434
C         -3.82809       -0.36213       -2.11001
H         -4.67816       -0.25373       -2.79221
O          0.35428        2.15391        0.04198
C         -0.48852        2.58703        0.82785
O         -1.13607        1.84741        1.68237
C         -0.85946        4.02961        0.84339
H         -0.10523        4.61870        0.31150
H         -1.83123        4.13973        0.33707
H         -0.98216        4.37942        1.87677
H         -0.92354        0.89292        1.51683
Pd         1.18932        0.27440       -0.12861
O          3.31676        0.52858       -0.74192
C          3.37447       -0.72098       -0.72133
O          2.33115       -1.38796       -0.38950
C          4.61422       -1.47009       -1.09342
H          4.78686       -2.28975       -0.38287
H          4.47280       -1.91928       -2.08819
H          5.47483       -0.79157       -1.12246
H          1.52952       -1.93161        1.89012
H          0.46244       -2.17181        3.30683
H          0.99491       -0.53936        2.83812
