44
Isoquinoline_H12_Int2_Sub4.log	Energy: -717476.2343196
C         -0.57463       -0.30083       -0.37904
C         -1.61477        0.62551       -0.71979
C         -0.79545       -1.67694       -0.50891
C         -2.87847        0.16644       -1.19224
C         -1.46002        2.03854       -0.59908
C         -2.07429       -2.09867       -0.98421
C          0.28089       -2.74624       -0.23246
C         -3.07966       -1.22648       -1.31522
C         -3.86651        1.13209       -1.50243
H         -0.49593        2.43068       -0.24816
N         -2.38755        2.91761       -0.88585
H         -2.26886       -3.16509       -1.09039
H         -4.04218       -1.60202       -1.67084
H         -4.84482        0.81180       -1.86909
C         -3.57937        2.46497       -1.33394
H         -4.32863        3.23000       -1.56440
O          0.42451        0.82064        2.17128
C         -0.52825        0.41120        2.83130
O         -1.42782       -0.41844        2.38359
C         -0.74449        0.85772        4.23705
H          0.13191        1.40555        4.59790
H         -1.62847        1.51312        4.26432
H         -0.95859       -0.00918        4.87688
H         -1.24487       -0.62777        1.43194
Pd         1.10818        0.52487        0.23373
O          3.14998        1.40330        0.16787
C          3.13425        1.12957       -1.05324
O          2.09982        0.55806       -1.54919
C          4.27968        1.44573       -1.96073
H          4.61898        0.52505       -2.45678
H          3.94051        2.13460       -2.74807
H          5.10202        1.89808       -1.39459
C          0.94158       -2.54850        1.13783
H          1.69510       -3.33321        1.30575
H          1.46037       -1.57898        1.21188
H          0.20291       -2.61265        1.95246
C         -0.29834       -4.16577       -0.23980
H         -0.69031       -4.45448       -1.22619
H          0.50017       -4.88060        0.00906
H         -1.10039       -4.29104        0.50459
C          1.34047       -2.66242       -1.34165
H          2.12404       -3.41945       -1.17545
H          0.88406       -2.85459       -2.32494
H          1.81175       -1.67127       -1.38549
