45
Napthalene_H7_Int2_Sub28.log	Energy: -707413.7970364
C         -0.13299       -0.36433       -0.06993
C          0.76871        0.33625        0.79261
C          0.38756       -1.26538       -0.97318
C          2.18953        0.12431        0.68829
C          0.26677        1.24721        1.75989
C          1.78168       -1.47702       -1.06839
H         -0.27794       -1.83850       -1.62467
C          2.70327       -0.81349       -0.28251
C          3.01143        0.87570        1.57539
C          1.10165        1.94852        2.59583
H         -0.81620        1.36916        1.83321
H          2.12099       -2.20104       -1.80758
C          4.20429       -1.09674       -0.46838
H          4.09051        0.75736        1.54093
C          2.49290        1.75866        2.49479
H          0.68994        2.63803        3.33635
H          3.16962        2.30826        3.15352
O         -1.85738        1.92717       -0.52619
C         -1.07861        2.46244       -1.31488
O         -0.12551        1.83461       -1.94198
C         -1.15481        3.92259       -1.60217
H         -0.99045        4.10973       -2.67135
H         -2.11982        4.32196       -1.27330
H         -0.34489        4.42242       -1.04807
H         -0.05896        0.90662       -1.59953
Pd        -2.07028       -0.07504       -0.04847
O         -4.24823       -0.53252        0.11024
C         -3.88331       -1.70194        0.36821
O         -2.63361       -1.97861        0.38474
C         -4.86169       -2.78893        0.68571
H         -4.85514       -2.96567        1.77212
H         -5.87143       -2.49456        0.37596
H         -4.55951       -3.72460        0.19647
C          4.45434       -2.13216       -1.57256
H          5.53760       -2.29929       -1.66963
H          3.99071       -3.10318       -1.34295
H          4.08431       -1.79207       -2.55149
C          4.94620        0.17825       -0.90891
H          4.86697        1.00637       -0.19463
H          6.01636       -0.03991       -1.05264
H          4.54304        0.53663       -1.86855
C          4.80835       -1.69390        0.81554
H          5.87852       -1.90650        0.66379
H          4.71792       -1.04275        1.69296
H          4.30680       -2.64202        1.06233
