49
Napthalene_H7_Int2_Sub3.log	Energy: -755971.8702898
C          0.66312        0.41103       -0.35774
C          2.03222        0.54538       -0.75844
C         -0.17222        1.52195       -0.31280
C          2.53645        1.83621       -1.11502
C          2.92235       -0.55991       -0.81158
C          0.35194        2.79374       -0.68242
C         -1.62629        1.40301        0.08216
C          1.65796        2.94903       -1.06832
C          3.89376        1.96886       -1.50212
C          4.23613       -0.40013       -1.19048
H          2.53979       -1.55075       -0.55421
H         -0.30774        3.66480       -0.65518
H          2.04026        3.93538       -1.34357
H          4.26550        2.96066       -1.77339
C          4.72906        0.87658       -1.53866
H          4.89994       -1.26709       -1.22873
H          5.77273        0.99318       -1.84016
O          1.07629       -1.50912        1.80911
C          1.41879       -0.64377        2.61527
O          1.23135        0.63237        2.44339
C          2.11502       -1.00466        3.88299
H          1.68790       -0.43755        4.72093
H          2.04384       -2.08269        4.06008
H          3.17303       -0.71371        3.79335
H          0.87216        0.79678        1.52998
Pd        -0.05057       -1.36860        0.08362
O         -1.28679       -3.23077       -0.11286
C         -1.73172       -2.70614       -1.15729
O         -1.29918       -1.55435       -1.51478
C         -2.76252       -3.37390       -2.01266
H         -2.36029       -3.51657       -3.02611
H         -3.04991       -4.33991       -1.58182
H         -3.64260       -2.72032       -2.10070
H         -1.76857        0.37600        0.46607
C         -2.54867        1.54358       -1.13484
H         -2.24912        0.80505       -1.89296
H         -2.41120        2.54577       -1.58091
C         -4.00912        1.34956       -0.74512
H         -4.65861        1.48928       -1.62461
H         -4.15186        0.30359       -0.41741
C         -4.42480        2.29149        0.37960
H         -5.47071        2.10514        0.67326
H         -4.38694        3.33317        0.01140
C         -3.50326        2.15672        1.58729
H         -3.62232        1.14813        2.02325
H         -3.79264        2.87093        2.37535
C         -2.04213        2.36200        1.20176
H         -1.89831        3.40670        0.87282
H         -1.38764        2.22060        2.07840
