36
Napthalene_H7_Int2_Sub30.log	Energy: -633471.4266633
C          0.34278       -0.58913       -0.27400
C          1.44926       -0.23674        0.56499
C          0.55616       -1.44839       -1.33495
C          2.75403       -0.75587        0.27293
C          1.29370        0.61755        1.68814
C          1.84555       -1.96094       -1.61298
H         -0.28241       -1.75232       -1.96759
C          2.94067       -1.63259       -0.84405
C          3.83441       -0.37952        1.11321
C          2.36405        0.96127        2.48187
H          0.29380        0.99112        1.91986
H          1.97241       -2.63604       -2.46404
C          4.29615       -2.18629       -1.16745
H          4.83267       -0.76675        0.90267
C          3.64889        0.45946        2.18842
H          2.21701        1.61504        3.34478
H          4.49768        0.73169        2.82038
O         -0.82945        2.06995       -0.19256
C         -0.02288        2.54154       -0.99408
O          0.69045        1.82875       -1.81790
C          0.22399        4.00915       -1.06663
H          0.32938        4.32665       -2.11221
H         -0.58411        4.55291       -0.56644
H          1.17677        4.22074       -0.55644
H          0.56595        0.86646       -1.61375
Pd        -1.46459        0.11185        0.01277
O         -3.66785        0.12199        0.36255
C         -3.56811       -1.12530        0.40213
O         -2.42170       -1.66748        0.22764
C         -4.74460       -2.00907        0.67469
H         -4.69441       -2.35360        1.71891
H         -5.67913       -1.45557        0.52460
H         -4.70804       -2.89774        0.03053
H          4.70191       -2.78081       -0.33291
H          5.02456       -1.38592       -1.37617
H          4.25133       -2.83725       -2.05105
