33
Napthalene_H7_Int2_Sub2.log	Energy: -897142.0353581
C         -0.53808       -0.52699        0.27788
C         -1.69272       -0.45566       -0.56805
C         -0.63815       -1.25534        1.44944
C         -2.89876       -1.12984       -0.19220
C         -1.68411        0.27896       -1.78320
C         -1.82362       -1.93100        1.83067
Cl         0.71825       -1.35611        2.53776
C         -2.92782       -1.86646        1.02068
C         -4.03342       -1.04257       -1.03730
C         -2.80304        0.34653       -2.58180
H         -0.76065        0.78329       -2.07856
H         -1.83641       -2.49048        2.76751
H         -3.84790       -2.38211        1.30643
H         -4.94779       -1.56333       -0.74087
C         -3.99032       -0.31979       -2.20680
H         -2.77104        0.91368       -3.51502
H         -4.87232       -0.26205       -2.84885
O          0.52173        2.22715        0.08432
C         -0.30406        2.68934        0.87102
O         -1.07236        1.96526        1.63186
C         -0.50315        4.16011        1.00727
H         -0.47597        4.44077        2.06930
H          0.26428        4.69859        0.44223
H         -1.50237        4.41872        0.62545
H         -0.93378        1.00716        1.42069
Pd         1.17028        0.29569       -0.24636
O          3.24646        0.45701       -0.96312
C          3.22199       -0.79419       -1.04811
O          2.14910       -1.41414       -0.73264
C          4.41118       -1.58720       -1.48568
H          4.10841       -2.33276       -2.23367
H          5.18388       -0.92327       -1.89060
H          4.81344       -2.13393       -0.61956
