36
Napthalene_H7_Int2_Sub6.log	Energy: -633471.6136485
C         -0.47417       -0.62131        0.39331
C         -1.62254       -0.56180       -0.45879
C         -0.51609       -1.33776        1.58616
C         -2.82607       -1.23077       -0.06571
C         -1.62280        0.14731       -1.69050
C         -1.72307       -1.99580        1.95191
C          0.68614       -1.44027        2.48424
C         -2.84132       -1.94454        1.15832
C         -3.96665       -1.16016       -0.90599
C         -2.74572        0.19784       -2.48423
H         -0.70313        0.64628       -2.00548
H         -1.74835       -2.55336        2.89232
H         -3.75893       -2.45494        1.46184
H         -4.87830       -1.67666       -0.59360
C         -3.93174       -0.46060       -2.08908
H         -2.71820        0.74424       -3.43000
H         -4.81736       -0.41587       -2.72734
O          0.36526        2.15588        0.01459
C         -0.47804        2.59662        0.79599
O         -1.13737        1.86668        1.64786
C         -0.83204        4.04438        0.81194
H         -0.89945        4.40423        1.84735
H         -0.09579        4.62004        0.24172
H         -1.82716        4.16278        0.35600
H         -0.93563        0.90676        1.48470
Pd         1.19514        0.26980       -0.13802
O          3.32972        0.49939       -0.77183
C          3.37626       -0.74962       -0.72413
O          2.33026       -1.40331       -0.37698
C          4.61110       -1.51676       -1.07946
H          4.45404       -2.01771       -2.04667
H          5.47117       -0.84123       -1.15531
H          4.79547       -2.29903       -0.33048
H          1.01059       -0.44891        2.84058
H          1.53652       -1.87306        1.93569
H          0.47556       -2.06374        3.36451
