49
Napthalene_H7_Int2_Sub27.log	Energy: -755969.0570457
C         -0.59302       -0.32684        0.07031
C          0.15939        0.52273        0.94341
C          0.07775       -1.27408       -0.67756
C          1.58869        0.40112        0.99913
C         -0.47908        1.49006        1.76387
C          1.48608       -1.39314       -0.61489
H         -0.48202       -1.95508       -1.32470
C          2.25565       -0.57936        0.18876
C          2.29589        1.27005        1.87344
C          0.24127        2.31554        2.59528
H         -1.56885        1.55648        1.73023
H          1.96426       -2.15570       -1.23202
C          3.76427       -0.67610        0.19325
H          3.38196        1.19565        1.93947
C          1.64563        2.20338        2.64780
H         -0.27374        3.04750        3.22182
H          2.22034        2.85334        3.31201
O         -2.40575        1.78268       -0.76262
C         -1.58735        2.29997       -1.52275
O         -0.54068        1.68742       -1.99717
C         -1.72398        3.72033       -1.95195
H         -1.46893        3.82338       -3.01475
H         -2.73867        4.07934       -1.75098
H         -1.00301        4.32185       -1.37646
H         -0.45176        0.80087       -1.56203
Pd        -2.53664       -0.18251       -0.12731
O         -4.68562       -0.78628       -0.13970
C         -4.27274       -1.89935        0.25735
O         -3.01582       -2.07982        0.41939
C         -5.20493       -3.02557        0.57735
H         -5.30553       -3.10243        1.67078
H         -6.19235       -2.83848        0.13890
H         -4.78943       -3.97552        0.21540
H          4.10512       -0.52061        1.23290
C          4.39593        0.43384       -0.66373
H          4.00670        1.41767       -0.35788
H          4.07026        0.28668       -1.70921
C          5.91810        0.41178       -0.58520
H          6.34270        1.19432       -1.23491
H          6.22910        0.66378        0.44526
C          6.48118       -0.95504       -0.95817
H          7.57684       -0.96581       -0.83978
H          6.28277       -1.14724       -2.02833
C          5.84339       -2.06370       -0.12790
H          6.13656       -1.94259        0.93077
H          6.22583       -3.04793       -0.44304
C          4.32241       -2.03432       -0.23425
H          4.04103       -2.23891       -1.28231
H          3.87225       -2.83491        0.37466
