33
OneHPyrrolo23bpyridine_H11_Int2_Sub6.log	Energy: -629708.4966546
C         -0.70233        0.25281        0.39311
C         -1.77801       -0.50899       -0.19464
C         -1.29804        1.10714        1.31298
C         -2.99111       -0.04804        0.38666
C         -1.88880       -1.53350       -1.13953
C         -0.67740        2.10088        2.22818
N         -2.66482        0.92714        1.29239
N         -4.21563       -0.46944        0.11480
C         -3.16617       -1.99671       -1.43665
H         -0.99787       -1.95763       -1.60780
H         -3.34325        1.43180        1.84687
C         -4.28482       -1.43751       -0.79429
H         -3.31302       -2.79791       -2.16369
H         -5.28831       -1.80546       -1.03553
O          1.72236        1.83169       -0.24723
C          1.08330        2.67593       -0.88110
O         -0.16410        2.53811       -1.21034
C          1.71958        3.95010       -1.32279
H          1.65051        4.02501       -2.41787
H          1.16394        4.80135       -0.90362
H          2.76687        3.98043       -1.00576
H         -0.51365        1.70057       -0.77170
Pd         1.20363       -0.13055        0.11644
O          3.06203       -1.32479       -0.07765
C          2.33822       -2.31758        0.16585
O          1.08432       -2.14133        0.35577
C          2.89370       -3.70227        0.26953
H          2.20469       -4.42253       -0.19123
H          3.88332       -3.75093       -0.20022
H          2.98905       -3.96660        1.33384
H         -1.05215        3.12134        2.03941
H          0.41232        2.09798        2.09998
H         -0.89191        1.86091        3.28244
