33
OneHPyrrolo23bpyridine_H9_Int2_Sub17.log	Energy: -816451.3357922
C         -0.35305       -0.67136        0.15625
C         -0.36622       -1.92489        0.81820
C          0.86738       -0.14091       -0.26259
H         -1.32553       -2.36301        1.11233
N          0.72254       -2.63421        1.10313
C          2.02882       -0.86355        0.03204
H          0.92618        0.80602       -0.80441
C          1.86601       -2.09298        0.71692
C          3.43842       -0.68787       -0.15632
N          3.11810       -2.62534        0.91659
C          4.05907       -1.78317        0.39831
C          4.09922        0.47220       -0.79736
H          3.29197       -3.50555        1.38224
H          5.12148       -2.00899        0.45727
O         -1.12078        2.07843       -0.08056
C         -0.52046        2.46880        0.92179
O         -0.40264        1.75106        2.00541
C          0.17208        3.78364        0.95813
H          0.09902        4.23498        1.95550
H          1.23842        3.59717        0.74870
H         -0.23381        4.44671        0.18692
H         -0.75731        0.85215        1.80947
Pd        -2.05794        0.23451       -0.18069
O         -4.22965        0.50872       -0.58434
C         -4.29908       -0.73967       -0.53668
O         -3.23564       -1.41207       -0.29097
C         -5.57467       -1.47886       -0.78493
H         -5.65637       -2.33515       -0.10246
H         -6.43215       -0.80477       -0.67278
H         -5.56064       -1.87180       -1.81313
F          5.43109        0.38236       -0.73496
F          3.74631        1.63019       -0.20673
F          3.76415        0.60125       -2.08770
