30
OneHPyrrolo23bpyridine_H11_deriv1_Int2_Sub18.log	Energy: -1181694.6953210
C          0.14927       -0.73874        0.87187
C         -1.22064       -0.78448        0.42149
C          0.20710       -1.64536        1.91710
C         -1.91842       -1.72016        1.23938
C         -1.98590       -0.14816       -0.56523
H          1.06902       -1.93929        2.51363
N         -1.01875       -2.22316        2.13588
N         -3.19937       -2.04709        1.16803
C         -3.33790       -0.48340       -0.66040
Cl        -1.28199        1.00962       -1.62407
H         -1.25077       -2.90505        2.84543
C         -3.89128       -1.43180        0.22397
Cl        -4.35847        0.24326       -1.84490
H         -4.95420       -1.67364        0.12659
O          1.08334        2.05213        0.37202
C          0.29418        2.50877        1.19903
O         -0.33339        1.78433        2.07754
C         -0.03101        3.96243        1.22513
H         -0.94750        4.10797        0.63130
H         -0.23211        4.29858        2.24978
H          0.78035        4.53745        0.76584
H         -0.13240        0.82295        1.89720
Pd         1.71519        0.12133        0.04764
O          3.65104        0.30440       -0.97443
C          3.67129       -0.94919       -0.97583
O          2.70166       -1.58232       -0.43045
C          4.77333       -1.72562       -1.62092
H          4.44201       -2.04192       -2.62200
H          5.66700       -1.09876       -1.72591
H          4.99362       -2.63032       -1.03928
