42
OneHPyrrolo23bpyridine_H11_Int2_Sub20.log	Energy: -703653.2430672
C          0.59953       -0.90897       -0.69370
C         -0.82766       -0.90706       -0.48449
C          0.86179       -2.05437       -1.42768
C         -1.34758       -2.07621       -1.09347
C         -1.74844       -0.05310        0.13389
H          1.81059       -2.42016       -1.81818
N         -0.29895       -2.75324       -1.65910
N         -2.61868       -2.44930       -1.11356
C         -3.09612       -0.40319        0.12477
H         -1.39334        0.87320        0.58507
H         -0.38973       -3.62784       -2.15723
C         -3.45708       -1.61771       -0.51121
C         -4.18513        0.46703        0.75369
H         -4.51026       -1.92013       -0.52772
O          3.31894       -0.69499        0.35825
C          3.19974       -1.64331        1.13799
O          2.05653       -2.16997        1.46214
C          4.38987       -2.26850        1.78187
H          4.28257       -2.20190        2.87447
H          4.42748       -3.33676        1.52411
H          5.30476       -1.76141        1.45936
H          1.35453       -1.76879        0.87078
Pd         1.80217        0.56714       -0.24025
O          2.51896        2.64558        0.05097
C          1.38849        2.99660       -0.35688
O          0.53298        2.09621       -0.66920
C          1.00744        4.43435       -0.51353
H         -0.00615        4.59978       -0.12361
H          1.73162        5.07820       -0.00072
H          0.99409        4.68444       -1.58524
C         -3.60018        1.73168        1.38375
H         -4.40826        2.33843        1.82031
H         -2.88933        1.49405        2.18987
H         -3.07833        2.35322        0.64021
C         -5.18914        0.88713       -0.33002
H         -5.67405        0.01766       -0.79817
H         -5.98123        1.51949        0.10246
H         -4.68805        1.45998       -1.12525
C         -4.91040       -0.32982        1.84777
H         -5.69896        0.28342        2.31289
H         -5.38634       -1.23705        1.44683
H         -4.20785       -0.64040        2.63639
