34
OneHPyrrolo23bpyridine_H11_deriv1_Int2_Sub24.log	Energy: -965187.3728395
C          0.13734       -0.57893        0.99719
C         -1.24567       -0.62995        0.58928
C          0.19270       -1.33217        2.15829
C         -1.95489       -1.41059        1.54862
C         -2.02131       -0.10805       -0.45333
H          1.06075       -1.57522        2.76871
N         -1.04656       -1.82120        2.48589
N         -3.24951       -1.68460        1.56017
C         -3.39031       -0.38666       -0.47708
Cl        -1.32763        0.88516       -1.68365
H         -1.28417       -2.38210        3.29262
C         -3.94220       -1.17717        0.55183
O         -4.20840        0.11201       -1.43698
H         -5.02011       -1.36920        0.51771
O          1.13966        2.07509        0.08875
C          0.39244        2.66806        0.86715
O         -0.22406        2.09556        1.85768
C          0.10886        4.12084        0.69666
H         -0.81932        4.20961        0.10982
H         -0.05453        4.60307        1.66826
H          0.92264        4.60043        0.14192
H         -0.06161        1.11059        1.80603
Pd         1.70526        0.09820        0.02204
O          3.62009        0.06476       -1.06499
C          3.59800       -1.17582       -0.88737
O          2.62400       -1.69048       -0.23600
C          4.65627       -2.07611       -1.43948
H          4.28756       -2.52002       -2.37701
H          5.56675       -1.50351       -1.65354
H          4.86306       -2.89591       -0.73910
C         -4.22321       -0.61031       -2.64896
H         -3.22867       -0.62473       -3.12579
H         -4.55999       -1.65001       -2.49103
H         -4.93072       -0.10184       -3.31711
