42
OneHPyrrolo23bpyridine_H9_deriv1_Int2_Sub28.log	Energy: -991979.1574772
C          0.54273       -0.28441       -0.33856
C          0.11588       -1.07719       -1.43437
C         -0.44732        0.22445        0.50770
H          0.87440       -1.50982       -2.09532
N         -1.15043       -1.35678       -1.73110
C         -1.79377       -0.04617        0.24437
Cl        -0.04701        1.20652        1.88365
C         -2.04612       -0.84714       -0.90264
C         -3.06015        0.26465        0.82804
N         -3.40317       -0.99882       -0.99236
C         -4.02366       -0.33573        0.04602
H         -3.23159        0.85881        1.72051
H         -3.85792       -1.53553       -1.71751
C         -5.52484       -0.35160        0.18322
O          2.50056        1.94401       -0.01019
C          1.81524        2.73694       -0.65276
O          0.83433        2.38259       -1.43363
C          2.04390        4.20609       -0.56230
H          1.91373        4.67623       -1.54551
H          1.28275        4.62525        0.11436
H          3.03928        4.40731       -0.15268
H          0.68114        1.40903       -1.32696
Pd         2.47627       -0.11793        0.00286
O          4.56007       -0.75340        0.36673
C          4.12118       -1.92443        0.28826
O          2.87652       -2.10500        0.04987
C          4.99767       -3.11840        0.49165
H          4.72819       -3.91154       -0.21835
H          6.05221       -2.83777        0.38417
H          4.83243       -3.50929        1.50734
C         -5.93935        0.45800        1.41077
H         -7.03471        0.45024        1.51553
H         -5.50771        0.03715        2.33102
H         -5.61409        1.50564        1.32660
C         -6.15877        0.26784       -1.07134
H         -5.89876       -0.29276       -1.98275
H         -7.25654        0.26733       -0.98498
H         -5.82331        1.30664       -1.20866
C         -6.00629       -1.80134        0.34508
H         -7.10168       -1.83049        0.45381
H         -5.74407       -2.42134       -0.52633
H         -5.55774       -2.26673        1.23533
