33
OneHPyrrolo23bpyridine_H11_deriv1_Int2_Sub22.log	Energy: -918028.2027117
C          0.10857       -0.68661       -0.82635
C          1.43555       -0.74031       -0.26028
C          0.15176       -1.54254       -1.91389
C          2.21272       -1.62923       -1.05726
C          2.11739       -0.15261        0.81090
H         -0.65207       -1.81585       -2.59530
N          1.39956       -2.09771       -2.05240
N          3.48561       -1.94515       -0.88802
C          3.46082       -0.45922        1.03866
Cl         1.29967        0.95975        1.85854
H          1.70129       -2.74132       -2.77111
C          4.07658       -1.36379        0.14570
C          4.22852        0.13683        2.17719
H          5.13155       -1.61345        0.30905
O         -0.90752        2.06609       -0.29767
C         -0.05440        2.56289       -1.03291
O          0.66470        1.88149       -1.87379
C          0.24345        4.02230       -0.97922
H          1.09421        4.16202       -0.29347
H          0.53676        4.39714       -1.96754
H         -0.61998        4.56781       -0.58310
H          0.46746        0.90900       -1.74584
Pd        -1.53136        0.11575       -0.09483
O         -3.54913        0.22650        0.78205
C         -3.54318       -1.02594        0.73146
O         -2.52261       -1.62094        0.23972
C         -4.67684       -1.84717        1.25679
H         -4.41803       -2.19969        2.26710
H         -5.58828       -1.24025        1.31675
H         -4.83353       -2.73030        0.62364
H          3.76817       -0.11549        3.14539
H          4.25049        1.23622        2.11437
H          5.26461       -0.22857        2.18282
