35
OneHPyrrolo23bpyridine_H11_Int2_Sub23.log	Energy: -664412.5308550
C          0.01594       -0.86506       -0.64823
C         -1.38524       -0.70854       -0.34560
C          0.10384       -2.01739       -1.41704
C         -2.06550       -1.80498       -0.93177
C         -2.15552        0.22828        0.35512
H          0.98198       -2.47382       -1.87215
N         -1.13409       -2.58150       -1.57952
N         -3.36704       -2.04072       -0.86360
C         -3.53575        0.01651        0.42401
H         -1.67904        1.10289        0.79828
H         -1.35062       -3.43342       -2.07742
C         -4.07474       -1.14431       -0.19981
N         -4.39616        0.89988        1.04448
H         -5.15743       -1.31658       -0.13966
O          2.78502       -0.98994        0.27086
C          2.58037       -1.92511        1.04907
O          1.39566       -2.31279        1.41456
C          3.71027       -2.69681        1.64156
H          3.65024       -2.63630        2.73807
H          3.61182       -3.75759        1.36927
H          4.66700       -2.29644        1.29137
H          0.72456       -1.82286        0.85036
Pd         1.41165        0.45311       -0.26366
O          2.39815        2.42881       -0.02370
C          1.30237        2.91599       -0.38371
O          0.32551        2.13058       -0.64280
C          1.10332        4.38962       -0.54949
H          0.10485        4.68019       -0.19670
H          1.88455        4.94146       -0.01319
H          1.16276        4.63610       -1.62070
H         -5.29462        0.51570        1.30156
C         -3.90838        1.97332        1.85720
H         -4.75850        2.52739        2.27797
H         -3.31848        2.68568        1.25623
H         -3.26442        1.63853        2.69629
