30
OneHPyrrolo23bpyridine_H9_Int2_Sub10.log	Energy: -893375.2679471
C         -0.45770       -0.41559       -0.26030
C         -0.82681       -1.30506       -1.30398
C         -1.46551       -0.00328        0.61427
H         -0.04743       -1.66455       -1.98432
N         -2.05536       -1.75782       -1.52751
C         -2.77730       -0.45587        0.42789
Cl        -1.13711        1.07776        1.93282
C         -2.97430       -1.33183       -0.67521
C         -4.04491       -0.28279        1.06405
N         -4.30196       -1.66200       -0.69497
C         -4.94135       -1.03619        0.34621
H         -4.26063        0.32081        1.94163
H         -4.71858       -2.28283       -1.37467
H         -6.00888       -1.17541        0.50525
O          1.21702        2.05383       -0.08610
C          0.40947        2.73519       -0.71459
O         -0.55038        2.23651       -1.44119
C          0.45187        4.22322       -0.66871
H          0.21839        4.64488       -1.65477
H         -0.32566        4.56113        0.03433
H          1.43053        4.56085       -0.31194
H         -0.57289        1.25564       -1.30427
Pd         1.45331        0.00644       -0.02617
O          3.61437       -0.34800        0.24080
C          3.32719       -1.56743        0.21179
O          2.10548       -1.91131        0.04331
C          4.35878       -2.63331        0.39589
H          4.15834       -3.47533       -0.27983
H          5.36174       -2.22411        0.22569
H          4.29619       -3.01116        1.42790
