33
OneHPyrrolo23bpyridine_H9_deriv1_Int2_Sub30.log	Energy: -918029.9355791
C         -0.20037       -0.34659       -0.29928
C         -0.60555       -1.18098       -1.37207
C         -1.19745        0.11240        0.56679
H          0.16068       -1.57557       -2.04773
N         -1.85926       -1.54342       -1.62980
C         -2.53125       -0.24512        0.34464
Cl        -0.82257        1.13834        1.91750
C         -2.76314       -1.07826       -0.78458
C         -3.79856       -0.00470        0.95764
N         -4.11039       -1.31611       -0.83600
C         -4.74005       -0.67616        0.20960
H         -3.99407        0.58967        1.84663
H         -4.55341       -1.89058       -1.53983
C         -6.21074       -0.77229        0.39629
O          1.62362        2.00387       -0.05338
C          0.87202        2.74393       -0.68484
O         -0.10509        2.31853       -1.43438
C          1.00896        4.22558       -0.61600
H          0.82023        4.67500       -1.59938
H          0.24271        4.60319        0.07915
H          2.00095        4.49453       -0.23825
H         -0.19358        1.33879       -1.31274
Pd         1.72767       -0.05519       -0.01451
O          3.85588       -0.55483        0.29834
C          3.48912       -1.75189        0.24684
O          2.25206       -2.01273        0.04593
C          4.44367       -2.88608        0.44050
H          4.20521       -3.70433       -0.25188
H          5.47531       -2.54201        0.30026
H          4.33065       -3.27218        1.46514
H         -6.75617       -0.37816       -0.47702
H         -6.51962       -0.19597        1.27732
H         -6.53196       -1.81662        0.54342
