39
OneHPyrrolo23bpyridine_H9_Int2_Sub13.log	Energy: -679004.0323830
C         -0.36731       -0.37294       -0.44822
C         -0.68005       -1.04347       -1.65762
C         -1.37287       -0.14023        0.50590
H          0.11719       -1.23610       -2.38416
N         -1.89124       -1.47371       -1.98936
C         -2.66694       -0.60137        0.17808
C         -1.07125        0.54975        1.81811
C         -2.82699       -1.24768       -1.07962
C         -3.95986       -0.61417        0.80408
N         -4.13987       -1.61569       -1.19733
C         -4.81743       -1.23965       -0.06684
H         -4.23709       -0.22107        1.77825
H         -4.51793       -2.10353       -1.99708
H         -5.88001       -1.44842        0.04109
O          1.32672        2.08372       -0.18042
C          0.50706        2.80253       -0.75039
O         -0.55210        2.35440       -1.36033
C          0.65396        4.28618       -0.75796
H          0.35539        4.69372       -1.73243
H         -0.02507        4.70516        0.00120
H          1.68404        4.56318       -0.51005
H         -0.61245        1.37087       -1.21820
Pd         1.53534        0.02542       -0.11736
O          3.69868       -0.39735        0.24786
C          3.36703       -1.60318        0.20215
O          2.14103       -1.90860       -0.00675
C          4.35424       -2.71106        0.39666
H          4.26120       -3.43910       -0.42132
H          5.37362       -2.31038        0.44098
H          4.12255       -3.23993        1.33317
H         -0.01069        0.84874        1.77102
C         -1.89864        1.81966        2.01724
H         -1.56179        2.35959        2.91577
H         -1.80632        2.49684        1.15415
H         -2.96903        1.60053        2.14170
C         -1.20559       -0.42198        2.99040
H         -0.54740       -1.29179        2.84814
H         -0.92505        0.07038        3.93465
H         -2.23612       -0.79414        3.09388
