34
OneHPyrrolo23bpyridine_H9_Int2_Sub24.log	Energy: -676862.9764754
C         -0.13895       -0.47159       -0.25868
C         -0.30503       -1.56279       -1.14965
C         -1.26966        0.08882        0.34018
H          0.58076       -2.02971       -1.59314
N         -1.48064       -2.08223       -1.48833
C         -2.52065       -0.45621        0.02394
H         -1.18577        0.93161        1.03225
C         -2.53598       -1.52926       -0.90931
C         -3.89171       -0.20298        0.36724
N         -3.83832       -1.88990       -1.11426
C         -4.65842       -1.09834       -0.34162
O         -4.36447        0.75369        1.20096
H         -4.12911       -2.62645       -1.74115
H         -5.74001       -1.20953       -0.35132
O          1.10447        2.11305        0.20730
C          0.55167        2.69180       -0.72895
O          0.07684        2.07517       -1.77478
C          0.36324        4.16872       -0.73376
H          0.67597        4.58037       -1.70319
H         -0.70917        4.38699       -0.61578
H          0.92937        4.62415        0.08500
H          0.12496        1.10149       -1.60441
Pd         1.67822        0.12323        0.17597
O          3.85508       -0.00033        0.64111
C          3.71962       -1.23442        0.48323
O          2.56992       -1.70028        0.16409
C          4.85135       -2.19224        0.68222
H          4.81779       -2.98237       -0.07961
H          5.80950       -1.65995        0.65242
H          4.73900       -2.67314        1.66602
C         -4.10977        0.52284        2.56660
H         -4.59441       -0.40687        2.91421
H         -3.02887        0.44922        2.77990
H         -4.52423        1.37381        3.12404
