33
OneHPyrrolo23bpyridine_H9_Int2_Sub6.log	Energy: -629705.3619812
C          0.57616       -0.24735        0.01411
C          1.04541       -0.94924        1.16690
C          1.47036        0.07475       -1.00914
C          0.10769       -1.31937        2.27729
N          2.32139       -1.30720        1.31210
C          2.81292       -0.30354       -0.87371
H          1.12940        0.61184       -1.89955
C          3.14321       -0.99247        0.32336
C          4.02048       -0.18964       -1.63564
N          4.48146       -1.27540        0.27940
C          5.00612       -0.79579       -0.89628
H          4.14837        0.27621       -2.61009
H          4.97974       -1.76975        1.00598
H          6.06220       -0.92519       -1.12516
O         -1.07161        2.16957       -0.34120
C         -0.30996        2.89492        0.29829
O          0.66470        2.44917        1.03783
C         -0.44416        4.37927        0.26994
H         -0.51195        4.75950        1.29922
H          0.46124        4.81439       -0.17849
H         -1.32924        4.66755       -0.30600
H          0.74126        1.46802        0.89524
Pd        -1.34089        0.12241       -0.22237
O         -3.52355       -0.27314       -0.47352
C         -3.22513       -1.48094       -0.34010
O         -2.00143       -1.80568       -0.14640
C         -4.24953       -2.56908       -0.41776
H         -4.10618       -3.27819        0.40909
H         -5.25985       -2.14425       -0.39339
H         -4.10923       -3.12589       -1.35653
H         -0.69365       -1.97206        1.89829
H         -0.38217       -0.42857        2.70308
H          0.66452       -1.83490        3.06985
