33
OneHPyrrolo23bpyridine_H11_deriv1_Int2_Sub17.log	Energy: -1104769.4262070
C          0.60604       -0.77899        0.95174
C         -0.80446       -0.84397        0.65049
C          0.78976       -1.69643        1.97019
C         -1.39521       -1.80459        1.52509
C         -1.68222       -0.21399       -0.23542
H          1.71433       -1.98291        2.46842
N         -0.39814       -2.30117        2.31022
N         -2.66993       -2.15429        1.58708
C         -3.03644       -0.56325       -0.19785
Cl        -1.08176        0.96713       -1.33935
H         -0.54113       -2.99792        3.02918
C         -3.46507       -1.53431        0.73000
C         -4.04206        0.07593       -1.11675
H         -4.52445       -1.80198        0.75458
O          1.43976        2.04116        0.42453
C          0.73920        2.46687        1.34273
O          0.22335        1.71232        2.26813
C          0.39581        3.91308        1.43809
H         -0.58699        4.05345        0.96032
H          0.31178        4.22506        2.48644
H          1.13787        4.51203        0.89919
H          0.42125        0.76027        2.04700
Pd         2.05800        0.12875       -0.01741
O          3.86172        0.37257       -1.24106
C          3.90100       -0.88010       -1.28132
O          3.00770       -1.54428       -0.64891
C          4.93451       -1.61860       -2.06785
H          4.49834       -1.91004       -3.03575
H          5.80266       -0.97413       -2.25117
H          5.22968       -2.53649       -1.54288
F         -4.10622        1.39969       -0.93949
F         -5.27025       -0.40729       -0.90312
F         -3.75357       -0.13760       -2.40217
