42
OneHPyrrolo23bpyridine_H9_deriv1_Int2_Sub4.log	Energy: -991975.4334281
C          0.50563       -0.10439       -0.10540
C          1.17868       -1.20317        0.52913
C          1.26426        0.74654       -0.91541
C          0.45378       -2.22038        1.42067
N          2.48127       -1.42323        0.35733
C          2.63220        0.53065       -1.10850
Cl         0.53617        2.12408       -1.68781
C          3.15024       -0.59718       -0.42608
C          3.71292        1.13478       -1.82150
N          4.48550       -0.66830       -0.71787
C          4.82115        0.36812       -1.55511
H          3.67086        2.01832       -2.45278
H          5.10506       -1.38337       -0.36337
H          5.84347        0.48602       -1.90886
O         -1.44863        1.64797        1.39253
C         -0.57141        2.12441        2.10954
O          0.67856        1.76249        2.06883
C         -0.88004        3.18230        3.11372
H         -0.57424        2.83689        4.11187
H         -0.28981        4.08143        2.88423
H         -1.94951        3.41485        3.09967
H          0.79121        1.07464        1.35984
Pd        -1.45050        0.22121       -0.10999
O         -3.55449        0.10074       -0.74665
C         -3.16613       -0.72848       -1.60261
O         -1.92546       -1.04026       -1.64270
C         -4.10016       -1.36286       -2.58210
H         -4.00810       -2.45664       -2.52216
H         -5.13244       -1.05422       -2.38039
H         -3.81233       -1.06551       -3.60121
C          1.47164       -3.09117        2.16020
H          0.93822       -3.81672        2.79385
H          2.11479       -3.63966        1.46049
H          2.12821       -2.48460        2.80151
C         -0.42498       -1.52875        2.46897
H         -1.24430       -0.95327        2.01021
H         -0.88374       -2.28396        3.12566
H          0.16863       -0.84982        3.10197
C         -0.40806       -3.12505        0.52721
H         -0.94286       -3.86518        1.14402
H         -1.14559       -2.55216       -0.05187
H          0.22471       -3.67078       -0.18935
