33
OneHPyrrolo23bpyridine_H11_Int2_Sub14.log	Energy: -629707.1483940
C          0.66142        0.27556       -0.67000
C          1.79463       -0.36932       -0.04427
C          1.17439        0.92716       -1.77922
C          2.94228       -0.04907       -0.82147
C          1.99570       -1.17360        1.09562
H          0.65271        1.51586       -2.53240
N          2.53030        0.73388       -1.86588
N          4.19552       -0.41832       -0.59530
C          3.31128       -1.56793        1.33554
C          0.86457       -1.58922        1.97968
H          3.15332        1.10898       -2.56792
C          4.35714       -1.17545        0.48171
H          3.53997       -2.19523        2.20043
H          5.38043       -1.50211        0.69878
O         -1.56126        2.06074        0.08502
C         -0.80996        2.89372        0.59723
O          0.45520        2.69262        0.80959
C         -1.31725        4.23093        1.01954
H         -1.08990        4.38420        2.08442
H         -0.78716        5.01452        0.45866
H         -2.39573        4.29931        0.84511
H          0.70611        1.81828        0.38587
Pd        -1.24219        0.05335       -0.24874
O         -3.19458       -0.94572        0.06550
C         -2.59140       -2.01238       -0.19229
O         -1.34020       -1.96837       -0.46404
C         -3.27532       -3.34203       -0.17002
H         -2.93291       -3.90553        0.71119
H         -4.36236       -3.21009       -0.11750
H         -2.99657       -3.92237       -1.06016
H          0.14794       -2.20398        1.41312
H          0.30410       -0.71153        2.34110
H          1.22167       -2.15797        2.84893
