30
OneHPyrrolo23bpyridine_H9_Int2_Sub18.log	Energy: -893372.5415063
C          0.10895       -0.51903        0.18542
C          0.25137       -1.66993        1.00377
C          1.24808        0.03929       -0.39747
H         -0.64344       -2.13190        1.43369
N          1.41129       -2.25592        1.28210
C          2.48119       -0.56404       -0.12690
H          1.19432        0.91561       -1.04950
C          2.47601       -1.70170        0.72325
C          3.84754       -0.34422       -0.48378
N          3.76938       -2.12897        0.86123
C          4.60141       -1.31338        0.13336
Cl         4.43157        0.91277       -1.49658
H          4.04612       -2.93147        1.40946
H          5.67636       -1.47192        0.09909
O         -1.05327        2.11621       -0.20788
C         -0.47077        2.66309        0.72918
O         -0.02618        2.01694        1.77143
C         -0.20486        4.12751        0.73855
H         -0.46797        4.54917        1.71814
H          0.87414        4.28818        0.59046
H         -0.76624        4.61772       -0.06324
H         -0.13044        1.04947        1.59728
Pd        -1.69789        0.14943       -0.18203
O         -3.88669        0.11593       -0.57942
C         -3.79593       -1.12513       -0.44506
O         -2.65575       -1.63906       -0.16667
C         -4.96871       -2.03491       -0.62696
H         -4.93913       -2.84512        0.11358
H         -5.90440       -1.46833       -0.55102
H         -4.90832       -2.49355       -1.62585
