46
OneHPyrrolo23bpyridine_H11_Int2_Sub3.log	Energy: -752208.5522104
C          0.29295        0.66743        0.08661
C          1.01559        1.90716        0.24025
C         -1.00346        1.02083       -0.26827
C          0.09685        2.96489       -0.00429
C          2.32716        2.27928        0.55021
C         -2.16357        0.14194       -0.60151
N         -1.11143        2.39475       -0.31017
N          0.34380        4.26371        0.05156
C          2.61153        3.63957        0.60714
H          3.09469        1.52174        0.72341
H         -1.94705        2.92490       -0.51639
C          1.59824        4.58181        0.35732
H          3.61940        3.98861        0.84056
H          1.82901        5.65179        0.40712
O         -0.24622       -1.96519        1.34239
C         -0.78927       -1.45191        2.32434
O         -0.74274       -0.18322        2.59249
C         -1.59015       -2.27625        3.27407
H         -1.45250       -1.91581        4.30149
H         -2.65519       -2.15866        3.01823
H         -1.31498       -3.33236        3.18254
H         -0.31374        0.28766        1.80947
Pd         1.12609       -1.11112        0.06157
O          2.59670       -2.69376       -0.44991
C          3.16481       -1.81215       -1.13425
O          2.67197       -0.63050       -1.15997
C          4.38793       -2.09802       -1.94616
H          5.09765       -1.26368       -1.86729
H          4.85027       -3.03710       -1.61965
H          4.09808       -2.18853       -3.00418
H         -1.82681       -0.88903       -0.39983
C         -2.52825        0.21133       -2.09152
H         -1.63594       -0.02030       -2.69369
H         -2.81714        1.24750       -2.34630
C         -3.67388       -0.73607       -2.42771
H         -3.93989       -0.64570       -3.49307
H         -3.33263       -1.77675       -2.28121
C         -4.89427       -0.47910       -1.55014
H         -5.69313       -1.20199       -1.78104
H         -5.30457        0.52055       -1.78268
C         -4.53802       -0.53706       -0.06843
H         -4.23395       -1.56774        0.19164
H         -5.42074       -0.30825        0.55029
C         -3.39767        0.41671        0.26865
H         -3.73778        1.45622        0.10611
H         -3.12661        0.34821        1.33459
