30
OneHPyrrolo23bpyridine_H9_deriv1_Int2_Sub10.log	Energy: -1181692.7278466
C          0.02379       -0.49723        0.42852
C          0.20428       -1.47199        1.44451
C          1.15547       -0.08699       -0.28053
H         -0.67552       -1.82883        1.99040
N          1.36721       -2.00851        1.79096
C          2.40863       -0.62632        0.04560
Cl         1.02935        1.08631       -1.54902
C          2.41303       -1.58339        1.10031
C          3.76977       -0.50672       -0.38403
N          3.70168       -2.00027        1.28161
C          4.52203       -1.35727        0.39078
Cl         4.39431        0.49811       -1.62478
H          3.97913       -2.68874        1.96749
H          5.59309       -1.53955        0.35685
O         -1.50504        2.06964        0.20244
C         -0.75353        2.67147        0.96684
O          0.07796        2.08128        1.77886
C         -0.71473        4.15942        1.00279
H         -0.58933        4.51616        2.03313
H          0.16336        4.48689        0.42411
H         -1.62061        4.57061        0.54527
H          0.06756        1.11019        1.58832
Pd        -1.81882        0.04381       -0.01928
O         -3.93750       -0.17777       -0.58011
C         -3.71360       -1.41071       -0.59523
O         -2.54079       -1.82859       -0.29515
C         -4.75986       -2.40635       -0.97847
H         -4.68733       -3.29694       -0.34025
H         -5.75664       -1.95467       -0.90974
H         -4.58127       -2.72427       -2.01711
