33
OneHPyrrolo23bpyridine_H11_deriv1_Int2_Sub14.log	Energy: -918021.5195100
C          0.38681       -0.61232       -0.41005
C          1.57923       -0.31312        0.34193
C          0.74982       -1.65727       -1.24316
C          2.60348       -1.20432       -0.09895
C          1.97128        0.59474        1.33204
H          0.13152       -2.20613       -1.95244
N          2.06632       -2.01201       -1.06712
N          3.85723       -1.25815        0.32360
C          3.27858        0.55883        1.80291
Cl         0.85478        1.75381        1.96659
C          2.78989       -3.04099       -1.76696
C          4.17438       -0.38168        1.26735
H          3.60209        1.25304        2.57893
H          5.20484       -0.40865        1.63732
O         -1.07356        1.97319       -0.67719
C         -0.17645        2.45271       -1.37031
O          0.76644        1.75013       -1.92393
C         -0.09026        3.92293       -1.59787
H          0.59573        4.33499       -0.84074
H          0.32501        4.14070       -2.58953
H         -1.07592        4.38226       -1.46559
H          0.68267        0.80397       -1.61107
Pd        -1.45539        0.02285       -0.14609
O         -3.59957       -0.04721        0.35190
C         -3.41520       -1.26513        0.58379
O         -2.24837       -1.75949        0.40554
C         -4.50710       -2.15084        1.09238
H         -4.40078       -2.25003        2.18363
H         -5.48651       -1.70988        0.87108
H         -4.41962       -3.15387        0.65461
H          2.32526       -4.02585       -1.60804
H          3.81175       -3.05655       -1.36704
H          2.82958       -2.83323       -2.84727
