39
OneHPyrrolo23bpyridine_H11_deriv1_Int2_Sub5.log	Energy: -967330.9713402
C          0.37931        0.54334        0.07090
C          1.65702        0.35043       -0.56880
C          0.37450        1.86257        0.50743
C          2.37792        1.57746       -0.47403
C          2.34330       -0.69148       -1.19934
C         -0.72747        2.62878        1.17142
N          1.56905        2.46541        0.18028
N          3.60032        1.82968       -0.91090
C          3.62719       -0.45929       -1.68124
Cl         1.61705       -2.25251       -1.37520
H          1.84476        3.41203        0.40467
C          4.20340        0.80972       -1.51189
H          4.17753       -1.25564       -2.18314
H          5.21513        0.99131       -1.88982
O         -0.43623       -2.07114        1.23818
C          0.48135       -2.02003        2.05882
O          1.17875       -0.95245        2.30123
C          0.88370       -3.23238        2.82715
H          1.72533       -3.70064        2.29247
H          1.22936       -2.95881        3.83174
H          0.05292       -3.94509        2.86906
H          0.90506       -0.23822        1.64880
Pd        -1.21020       -0.61597        0.01163
O         -3.24959       -1.28225       -0.53931
C         -3.32353       -0.21796       -1.19407
O         -2.32654        0.58681       -1.18493
C         -4.52819        0.13942       -2.00462
H         -4.27861        0.05193       -3.07282
H         -5.35981       -0.53463       -1.76828
H         -4.81007        1.18460       -1.81675
H         -1.46971        1.86957        1.46661
C         -0.25144        3.35814        2.42660
H         -1.09785        3.84523        2.93359
H          0.22341        2.66762        3.13996
H          0.47750        4.15066        2.18764
C         -1.40391        3.57351        0.17472
H         -1.79893        3.00398       -0.67788
H         -2.23690        4.10884        0.65657
H         -0.69545        4.32801       -0.20430
