33
OneHPyrrolo23bpyridine_H11_deriv1_Int2_Sub25.log	Energy: -1104772.1516375
C          0.50920       -0.46408        0.82551
C         -0.80168       -0.28711        0.25242
C          0.29455       -1.21431        1.96914
C         -1.74428       -0.94326        1.10379
C         -1.35545        0.34428       -0.86603
H          1.02797       -1.59680        2.67705
N         -1.03981       -1.49381        2.13516
N         -3.05326       -1.00792        0.94628
C         -2.73084        0.28852       -1.06611
Cl        -0.35954        1.18959       -1.99459
H         -1.46175       -2.01421        2.89277
C         -3.52172       -0.39612       -0.13172
H         -3.18438        0.76735       -1.93238
C         -5.02219       -0.47504       -0.30705
O          2.05314        1.97702        0.06089
C          1.33529        2.70192        0.74968
O          0.51708        2.25699        1.65742
C          1.33005        4.17913        0.55873
H          0.50092        4.42266       -0.12459
H          1.14959        4.69437        1.51021
H          2.27060        4.50196        0.09937
H          0.51787        1.26028        1.62281
Pd         2.27995       -0.06708        0.06366
O          4.27857       -0.42960       -0.76474
C          4.03393       -1.64795       -0.59750
O          2.91351       -1.98474       -0.07732
C          4.99172       -2.71624       -1.01403
H          4.67888       -3.10671       -1.99467
H          6.00355       -2.30318       -1.10449
H          4.96913       -3.54882       -0.29880
F         -5.65867        0.07931        0.72473
F         -5.43342       -1.73867       -0.40013
F         -5.41861        0.16179       -1.41443
