46
OneHPyrrolo23bpyridine_H11_deriv1_Int2_Sub3.log	Energy: -1040531.3182799
C         -0.34390       -0.49630       -0.12892
C         -1.45820       -1.26481       -0.62520
C          0.71403       -1.39207       -0.02726
C         -1.01564       -2.61178       -0.78659
C         -2.80064       -1.04235       -0.94604
C          2.12848       -1.12140        0.36203
N          0.30072       -2.64663       -0.41685
N         -1.72465       -3.64927       -1.19828
C         -3.57404       -2.10871       -1.39243
Cl        -3.50182        0.53229       -0.78870
H          0.86006       -3.48900       -0.41678
C         -2.99062       -3.38110       -1.49910
H         -4.62107       -1.95496       -1.65518
H         -3.60067       -4.22074       -1.84874
O         -1.48137        1.67497        1.55733
C         -1.87375        0.85727        2.39132
O         -1.48916       -0.38199        2.42839
C         -2.87616        1.24523        3.42391
H         -3.87144        0.97461        3.03690
H         -2.71023        0.69057        4.35563
H         -2.84645        2.32758        3.59022
H         -0.91941       -0.56294        1.62054
Pd        -0.14013        1.45600        0.01725
O          0.64540        3.48148       -0.42922
C          1.34928        2.91861       -1.29758
O          1.26306        1.64800       -1.43902
C          2.27715        3.67859       -2.19077
H          1.86928        3.67924       -3.21281
H          2.38355        4.71158       -1.83953
H          3.25485        3.17837       -2.22703
H          2.13301       -0.08942        0.75305
C          3.06224       -1.14504       -0.85779
H          2.68469       -0.43023       -1.60337
H          3.03036       -2.14918       -1.31976
C          4.49463       -0.81011       -0.46059
H          5.15369       -0.86572       -1.34198
H          4.53058        0.23826       -0.11286
C          5.00496       -1.72663        0.64598
H          6.02629       -1.44001        0.94444
H          5.07422       -2.75946        0.25792
C          4.07631       -1.70931        1.85550
H          4.09244       -0.70321        2.31190
H          4.43584       -2.40634        2.62952
C          2.64234       -2.05142        1.46686
H          2.60635       -3.09978        1.11522
H          1.97614       -1.99476        2.34326
