35
OneHPyrrolo23bpyridine_H9_deriv1_Int2_Sub23.log	Energy: -952709.6557392
C         -0.13510       -0.13229       -0.11525
C         -0.82293       -0.97527       -1.02653
C         -0.90912        0.62264        0.77128
H         -0.23650       -1.59517       -1.71274
N         -2.14487       -1.08876       -1.11487
C         -2.30540        0.53595        0.72570
Cl        -0.17801        1.68949        1.92953
C         -2.82720       -0.35161       -0.25343
C         -3.41881        1.11759        1.40797
N         -4.19718       -0.29496       -0.16454
C         -4.54641        0.58725        0.83036
H         -3.38299        1.84081        2.21833
N         -5.09522       -1.02092       -0.91799
H         -5.60030        0.75955        1.03789
O          2.15297        1.77885       -0.33353
C          1.50380        2.59594       -0.98351
O          0.38273        2.31682       -1.58624
C          1.94797        4.01172       -1.11052
H          1.74709        4.38831       -2.12169
H          1.35707        4.61494       -0.40343
H          3.00964        4.09723       -0.85641
H          0.11089        1.39754       -1.33627
Pd         1.83229       -0.23788       -0.05107
O          3.83193       -1.15294        0.12116
C          3.22478       -2.24131        0.25173
O          1.94539       -2.24581        0.19994
C          3.94255       -3.52975        0.49417
H          3.46125       -4.34280       -0.06535
H          4.99876       -3.43386        0.21569
H          3.87518       -3.77572        1.56500
H         -4.83908       -0.90102       -1.89663
C         -5.11503       -2.43412       -0.57224
H         -5.84108       -2.93460       -1.22900
H         -5.46360       -2.55012        0.46437
H         -4.13310       -2.92720       -0.67954
