35
OneHPyrrolo23bpyridine_H9_deriv1_Int2_Sub15.log	Energy: -952728.2658691
C         -0.04487       -0.42553       -0.51536
C         -0.23791       -1.26890       -1.63906
C         -1.17791       -0.05850        0.21668
H          0.63945       -1.59633       -2.20725
N         -1.41472       -1.70365       -2.07165
C         -2.44406       -0.51687       -0.17387
Cl        -1.01841        0.99870        1.58648
C         -2.45839       -1.32368       -1.35015
C         -3.81464       -0.37694        0.25385
N         -3.75669       -1.63246       -1.62557
C         -4.56932       -1.08386       -0.65922
N         -4.28788        0.35807        1.34489
H         -4.04624       -2.18896       -2.41690
H         -5.64853       -1.22067       -0.68709
O          1.55556        2.06283       -0.08064
C          0.83144        2.73999       -0.80773
O         -0.01965        2.23730       -1.65623
C          0.85414        4.22831       -0.75150
H          0.75473        4.65200       -1.75913
H         -0.01585        4.55704       -0.16156
H          1.77161        4.57257       -0.26286
H         -0.05077        1.25483       -1.52832
Pd         1.80082        0.01657        0.01684
O          3.89983       -0.31821        0.61680
C          3.63146       -1.53991        0.54303
O          2.45403       -1.89535        0.18811
C          4.63259       -2.59689        0.88323
H          4.54796       -3.43832        0.18279
H          5.64576       -2.17771        0.87168
H          4.41425       -2.97912        1.89216
H         -5.26341        0.60256        1.21168
C         -4.06740       -0.20819        2.66124
H         -4.45514        0.48187        3.42547
H         -2.98954       -0.32111        2.84232
H         -4.54299       -1.19915        2.80718
