33
OneHPyrrolo23bpyridine_H11_deriv1_Int2_Sub1.log	Energy: -1104771.0625133
C          0.44882        0.47688       -0.05397
C          1.72598        0.13011       -0.62167
C          0.56185        1.82419        0.24224
C          2.53855        1.30164       -0.64410
C          2.33470       -1.03158       -1.11407
C         -0.46725        2.75194        0.80240
N          1.79536        2.31695       -0.11753
N          3.78852        1.40586       -1.07214
C          3.63995       -0.95398       -1.58050
Cl         1.48672       -2.53507       -1.13178
H          2.13340        3.25589        0.05043
C          4.31354        0.28069       -1.53598
H          4.13697       -1.84076       -1.97466
H          5.34427        0.33589       -1.90242
O         -0.57137       -1.86823        1.49303
C          0.27931       -1.72256        2.37040
O          1.01806       -0.65956        2.49401
C          0.54902       -2.79864        3.36511
H          1.45824       -3.33421        3.04983
H          0.74113       -2.36581        4.35524
H         -0.28954       -3.50231        3.39380
H          0.81927       -0.04479        1.73648
Pd        -1.19018       -0.61070       -0.01335
O         -3.17977       -1.32224       -0.56095
C         -3.18831       -0.39715       -1.40890
O         -2.16854        0.37231       -1.48449
C         -4.33330       -0.17846       -2.34194
H         -4.03616       -0.49933       -3.35185
H         -5.20424       -0.75982       -2.01729
H         -4.57511        0.89186       -2.39236
F         -1.31913        3.19454       -0.11916
F          0.12951        3.83154        1.33719
F         -1.18212        2.16452        1.76285
