34
OneHPyrrolo23bpyridine_H11_deriv1_Int2_Sub16.log	Energy: -965151.6887166
C          0.37699       -0.39844       -0.35606
C          1.45256        0.18464        0.40838
C          0.97490       -1.38440       -1.12264
C          2.66730       -0.47442        0.04974
C          1.60006        1.20204        1.35897
H          0.54087       -2.08929       -1.82889
N          2.32305       -1.42804       -0.87106
N          3.88592       -0.24358        0.51098
C          2.86504        1.47648        1.86485
Cl         0.23419        2.11314        1.90036
O          3.19518       -2.18973       -1.56493
C          3.96476        0.72823        1.41075
H          2.99926        2.26107        2.60996
H          4.95984        0.94325        1.81428
O         -1.60731        1.78696       -0.80217
C         -0.81795        2.41403       -1.50900
O          0.27642        1.91115       -1.99639
C         -1.05720        3.84854       -1.83411
H         -0.49386        4.45300       -1.10555
H         -0.68225        4.08772       -2.83694
H         -2.12276        4.08333       -1.73757
H          0.39486        0.98927       -1.62865
Pd        -1.56647       -0.16380       -0.15298
O         -3.65308       -0.66537        0.32497
C         -3.21798       -1.79882        0.63728
O         -1.96772       -2.03844        0.50555
C         -4.10714       -2.86700        1.18762
H         -4.01111       -2.87522        2.28429
H         -5.15212       -2.66195        0.92567
H         -3.79487       -3.85182        0.81620
C          3.71040       -3.24756       -0.76842
H          4.30319       -2.84839        0.06830
H          2.89657       -3.88834       -0.39087
H          4.35758       -3.82644       -1.43931
