34
OneHPyrrolo23bpyridine_H11_deriv1_Int2_Sub32.log	Energy: -965199.7912582
C          0.03443       -0.48135        0.76971
C         -1.23463       -0.32577        0.09807
C         -0.25346       -1.19904        1.91541
C         -2.22684       -0.96381        0.88813
C         -1.71598        0.28102       -1.07397
H          0.42474       -1.56084        2.68572
N         -1.60146       -1.48292        1.98215
N         -3.53120       -1.04319        0.63621
C         -3.06313        0.21576       -1.37505
Cl        -0.63928        1.11387       -2.13947
H         -2.07692       -1.98373        2.72015
C         -3.92584       -0.46324       -0.47965
H         -3.47173        0.66865       -2.27707
O         -5.21952       -0.49551       -0.81947
O          1.56190        1.98689        0.14709
C          0.78469        2.68185        0.80134
O         -0.07878        2.20572        1.64805
C          0.75911        4.16267        0.63368
H         -0.02329        4.40010       -0.10460
H          0.49898        4.65742        1.57754
H          1.72275        4.51387        0.24886
H         -0.05998        1.20709        1.59563
Pd         1.83803       -0.05224        0.12011
O          3.89501       -0.36978       -0.60315
C          3.65648       -1.59354       -0.47375
O          2.51514       -1.95830       -0.02519
C          4.65211       -2.64117       -0.85743
H          4.39846       -3.01780       -1.86032
H          5.66119       -2.21260       -0.88547
H          4.60359       -3.48727       -0.15949
C         -6.10041       -1.16744        0.05072
H         -5.82208       -2.22698        0.16287
H         -6.10136       -0.70951        1.05229
H         -7.09676       -1.08596       -0.40102
