42
OneHPyrrolo23bpyridine_H9_deriv1_Int2_Sub12.log	Energy: -991971.7814548
C          0.39698       -0.50753       -0.57853
C          0.33216       -1.39877       -1.67439
C         -0.79928       -0.17748        0.06902
H          1.25958       -1.69184       -2.17779
N         -0.78960       -1.92582       -2.14367
C         -2.03087       -0.69916       -0.37769
Cl        -0.68501        0.90519        1.43030
C         -1.89357       -1.57349       -1.50602
C         -3.44909       -0.64616       -0.06403
N         -3.13707       -2.01348       -1.84400
C         -4.05509       -1.46592       -0.99127
C         -4.20727        0.11175        1.01196
H         -3.31707       -2.65138       -2.60612
H         -5.11008       -1.70038       -1.10256
O          1.86556        2.07863       -0.19678
C          1.14473        2.68704       -0.98483
O          0.33367        2.10722       -1.82382
C          1.12437        4.17617       -1.02446
H          1.07634        4.52988       -2.06261
H          0.21153        4.51861       -0.51242
H          2.00192        4.57836       -0.50773
H          0.33489        1.13256       -1.64409
Pd         2.17922        0.05202        0.05378
O          4.23943       -0.14618        0.81653
C          4.02946       -1.38167        0.80649
O          2.89643       -1.81348        0.39614
C          5.04767       -2.36637        1.28414
H          5.05130       -3.25223        0.63525
H          6.03981       -1.90065        1.31705
H          4.77238       -2.69622        2.29761
C         -3.75308       -0.34417        2.40595
H         -4.30563        0.20412        3.18596
H         -3.94848       -1.41917        2.53986
H         -2.68161       -0.17196        2.56532
C         -4.00872        1.62411        0.83401
H         -4.38870        1.94778       -0.14737
H         -4.55850        2.17617        1.61335
H         -2.95102        1.90760        0.90054
C         -5.70896       -0.17356        0.89830
H         -6.24982        0.38048        1.68023
H         -6.11372        0.14657       -0.07437
H         -5.93307       -1.24269        1.03596
