46
OneHPyrrolo23bpyridine_H11_Int2_Sub19.log	Energy: -752204.5471564
C          1.28243       -0.96094       -0.64418
C         -0.11673       -1.30749       -0.57766
C          1.90431       -2.05388       -1.22418
C         -0.25662       -2.61734       -1.11033
C         -1.28624       -0.67646       -0.14695
H          2.95421       -2.19340       -1.47893
N          0.98873       -3.04292       -1.49429
N         -1.38119       -3.30604       -1.21944
C         -2.49223       -1.36778       -0.25688
H         -1.24138        0.34339        0.24223
H          1.17789       -3.94717       -1.90397
C         -2.46846       -2.67375       -0.79385
C         -3.79817       -0.74404        0.16796
H         -3.41354       -3.22457       -0.87849
O          3.71597        0.03668        0.63572
C          3.74294       -0.84467        1.49841
O          2.73699       -1.62347        1.76405
C          4.96317       -1.08398        2.32037
H          4.71007       -0.95459        3.38293
H          5.29523       -2.12405        2.19031
H          5.75623       -0.38659        2.03249
H          2.03430       -1.46685        1.06726
Pd         2.01715        0.80819       -0.24166
O          2.15385        3.01830       -0.11740
C          1.03034        3.02835       -0.66991
O          0.46938        1.91383       -0.95819
C          0.32945        4.29972       -1.02924
H         -0.74373        4.21469       -0.81175
H          0.77243        5.14434       -0.48834
H          0.43636        4.46964       -2.11150
H         -4.59316       -1.49201       -0.01053
C         -4.14389        0.49469       -0.66879
H         -4.16219        0.22387       -1.73669
H         -3.33472        1.23873       -0.55570
C         -5.47001        1.11594       -0.24552
H         -5.67327        2.01985       -0.84260
H         -6.28942        0.40816       -0.46797
C         -5.48476        1.44487        1.24329
H         -6.46305        1.85882        1.53724
H         -4.73897        2.23509        1.44650
C         -5.15114        0.21683        2.08333
H         -5.95498       -0.53258        1.96492
H         -5.12700        0.47650        3.15426
C         -3.82370       -0.40366        1.66312
H         -3.00395        0.30441        1.88166
H         -3.61240       -1.31096        2.25187
