30
OneHPyrrolo23bpyridine_H11_Int2_Sub10.log	Energy: -893376.0154677
C          0.37638       -0.67355       -0.68781
C          1.63658       -0.70910        0.01448
C          0.54624       -1.52808       -1.76323
C          2.50799       -1.58966       -0.69464
C          2.19643       -0.11383        1.15087
H         -0.17679       -1.81290       -2.52562
N          1.80969       -2.06674       -1.76785
N          3.76155       -1.89601       -0.39839
C          3.50747       -0.41921        1.49568
Cl         1.28165        0.99072        2.11767
H          2.19367       -2.70792       -2.44871
C          4.23904       -1.30980        0.69184
H          3.96065        0.02819        2.38075
H          5.27277       -1.54769        0.96468
O         -0.71787        2.06506       -0.24451
C          0.19966        2.57849       -0.88449
O          1.00300        1.91370       -1.66055
C          0.48057        4.03817       -0.78013
H          1.25549        4.17150       -0.00853
H          0.87112        4.42923       -1.72765
H         -0.42245        4.57320       -0.46660
H          0.80246        0.93929       -1.56541
Pd        -1.34279        0.10804       -0.13798
O         -3.44651        0.19298        0.50416
C         -3.42477       -1.05867        0.43977
O         -2.34958       -1.63983        0.06016
C         -4.60366       -1.89441        0.82272
H         -4.45884       -2.25708        1.85203
H         -5.52123       -1.29499        0.78484
H         -4.67917       -2.77100        0.16606
