42
OneHPyrrolo23bpyridine_H11_deriv1_Int2_Sub12.log	Energy: -991972.8126976
C         -0.16761       -0.20873        0.11137
C         -0.98889        0.70102       -0.64015
C         -1.05510       -1.13602        0.62736
C         -2.34418        0.26440       -0.51883
C         -0.79277        1.85724       -1.40336
H         -0.81941       -2.01072        1.22625
N         -2.35691       -0.86669        0.26576
N         -3.40798        0.84986       -1.05538
C         -1.89047        2.48123       -1.98191
Cl         0.79234        2.51351       -1.62590
C         -3.56639       -1.62605        0.65196
C         -3.16791        1.93712       -1.77553
H         -1.75943        3.37928       -2.58614
H         -4.03716        2.42649       -2.22742
O          2.11983        1.38411        1.16119
C          1.37264        2.04718        1.88070
O          0.14284        1.72178        2.14481
C          1.83592        3.32732        2.48764
H          1.52133        4.14451        1.81921
H          1.36619        3.48724        3.46598
H          2.92886        3.33470        2.56129
H         -0.09746        0.91820        1.59681
Pd         1.79054       -0.38499        0.16350
O          3.78413       -1.26510       -0.16920
C          3.17612       -2.20831       -0.72732
O          1.89781       -2.17910       -0.77627
C          3.89900       -3.35089       -1.36616
H          3.96215       -3.16633       -2.44963
H          4.91509       -3.43026       -0.96123
H          3.34248       -4.28550       -1.21728
C         -3.16828       -2.81381        1.52220
H         -4.07768       -3.36693        1.79551
H         -2.50215       -3.50849        0.98939
H         -2.67899       -2.49535        2.45476
C         -4.49601       -0.70312        1.44338
H         -4.79821        0.15625        0.83082
H         -5.39809       -1.25338        1.74992
H         -3.99173       -0.33375        2.34941
C         -4.25257       -2.13461       -0.61800
H         -5.14880       -2.71456       -0.35167
H         -4.55273       -1.29406       -1.25689
H         -3.57272       -2.78697       -1.18646
