46
OneHPyrrolo23bpyridine_H11_deriv1_Int2_Sub11.log	Energy: -1040524.4786526
C         -0.17535       -0.01374       -0.02365
C          0.17932       -1.21723       -0.73178
C          1.03560        0.58261        0.28691
C          1.60446       -1.27560       -0.79558
C         -0.48516       -2.29566       -1.32636
H          1.20786        1.53127        0.79258
N          2.09881       -0.16345       -0.16470
N          2.34301       -2.22637       -1.34802
C          0.26192       -3.30523       -1.92177
Cl        -2.21304       -2.38538       -1.32293
C          3.51161        0.13075       -0.01009
C          1.66426       -3.22103       -1.90384
H         -0.23684       -4.15063       -2.39651
H          2.25320       -4.01732       -2.37135
O         -2.71129       -0.63872        1.40356
C         -2.14679       -1.46321        2.12253
O         -0.85638       -1.55650        2.24508
C         -2.93258       -2.46457        2.89777
H         -2.98787       -3.38272        2.29150
H         -2.43020       -2.70859        3.84190
H         -3.94944       -2.09445        3.06806
H         -0.42922       -0.92675        1.59501
Pd        -1.93232        0.83840        0.20208
O         -3.53356        2.33724       -0.02289
C         -2.71737        2.97158       -0.73152
O         -1.54233        2.49432       -0.90176
C         -3.08353        4.25254       -1.41062
H         -3.34324        4.03436       -2.45796
H         -3.95156        4.70758       -0.91854
H         -2.22804        4.94065       -1.41385
H          4.02059       -0.70999       -0.50933
C          3.93086        0.14875        1.45873
H          3.66208       -0.81154        1.92668
H          3.35987        0.93247        1.98832
C          5.42385        0.42599        1.59691
H          5.70246        0.46638        2.66188
H          5.98893       -0.41722        1.16071
C          5.82130        1.71684        0.88850
H          6.90802        1.87897        0.96923
H          5.34081        2.57269        1.39657
C          5.39432        1.69896       -0.57554
H          5.95826        0.91299       -1.10927
H          5.65189        2.65093       -1.06611
C          3.90123        1.42606       -0.71966
H          3.32901        2.26463       -0.28418
H          3.61006        1.36239       -1.77971
