39
OneHPyrrolo23bpyridine_H9_deriv1_Int2_Sub5.log	Energy: -967328.5477230
C          0.47601       -0.19866       -0.09426
C          0.94555       -1.32328        0.65683
C          1.39679        0.49465       -0.88061
C         -0.01303       -2.11192        1.52820
N          2.21777       -1.71311        0.65174
C          2.74077        0.10410       -0.91046
Cl         0.91097        1.87266       -1.82166
C          3.05380       -1.01947       -0.10329
C          3.94899        0.52233       -1.54844
N          4.39213       -1.26190       -0.25132
C          4.92771       -0.33966       -1.11764
H          4.07300        1.35244       -2.23879
H          4.88385       -2.01528        0.20854
H          5.98595       -0.36499       -1.36979
O         -1.28348        2.08405        0.73016
C         -0.42673        2.57570        1.46198
O          0.67945        1.97379        1.79400
C         -0.58584        3.94484        2.02844
H         -0.29927        3.95038        3.08856
H          0.10052        4.62109        1.49585
H         -1.61613        4.29048        1.89568
H          0.73890        1.11778        1.29490
Pd        -1.44671        0.24166       -0.18862
O         -3.59257        0.00462       -0.67583
C         -3.27063       -1.10653       -1.15528
O         -2.04423       -1.47285       -1.10224
C         -4.26410       -2.01296       -1.80828
H         -4.10038       -3.04819       -1.47957
H         -5.28534       -1.68750       -1.57784
H         -4.11023       -1.98324       -2.89764
H         -0.94585       -2.21481        0.94864
C          0.51380       -3.50268        1.85010
H         -0.23613       -4.06809        2.42414
H          0.74391       -4.06331        0.93265
H          1.43964       -3.44813        2.44070
C         -0.33904       -1.33641        2.80752
H         -0.81831       -0.37072        2.58445
H         -1.03406       -1.90859        3.44137
H          0.57489       -1.14324        3.39225
