33
OneHPyrrolo23bpyridine_H9_deriv1_Int2_Sub6.log	Energy: -918029.1117157
C          0.48359       -0.32183        0.22520
C          0.91305       -1.13115        1.32419
C          1.42985        0.03802       -0.73412
C         -0.07230       -1.56402        2.36841
N          2.17060       -1.54109        1.47797
C          2.75981       -0.37887       -0.60421
Cl         0.99428        1.02947       -2.09220
C          3.03051       -1.17133        0.54159
C          3.98600       -0.23525       -1.32384
N          4.36109       -1.48658        0.50764
C          4.93286       -0.92793       -0.60990
H          4.14183        0.30809       -2.25204
H          4.82472       -2.05194        1.20497
H          5.99128       -1.06800       -0.82019
O         -1.26011        2.11308        0.17458
C         -0.42044        2.80262        0.75070
O          0.64299        2.32172        1.32729
C         -0.55178        4.28558        0.81616
H         -0.29717        4.64459        1.82216
H          0.17175        4.72670        0.11319
H         -1.56551        4.58704        0.53298
H          0.69783        1.34870        1.12994
Pd        -1.43497        0.06875       -0.02950
O         -3.57921       -0.31746       -0.40284
C         -3.26352       -1.52833       -0.45502
O         -2.03956       -1.85812       -0.27152
C         -4.26246       -2.60090       -0.74965
H         -4.08507       -3.47009       -0.10218
H         -5.28142       -2.21770       -0.61916
H         -4.13163       -2.93056       -1.79163
H         -0.86429       -2.17780        1.91187
H         -0.56793       -0.69798        2.83558
H          0.44572       -2.14412        3.14235
