33
OneHPyrrolo23bpyridine_H11_Int2_Sub22.log	Energy: -629704.9211182
C         -0.32748       -0.68131       -0.60298
C         -1.65614       -0.31118       -0.17779
C         -0.50217       -1.75271       -1.46296
C         -2.56596       -1.20937       -0.79839
C         -2.21061        0.67050        0.64867
H          0.24503       -2.31378       -2.02289
N         -1.83424       -2.07097       -1.57374
N         -3.88103       -1.22286       -0.65355
C         -3.59459        0.69435        0.81570
H         -1.56663        1.40868        1.13352
H         -2.23457       -2.81944       -2.12221
C         -4.36705       -0.28024        0.14460
C         -4.26271        1.73980        1.66119
H         -5.45575       -0.27545        0.27915
O          2.43293       -1.36691        0.08626
C          2.11933       -2.32188        0.80120
O          0.91048       -2.53622        1.22744
C          3.13194       -3.32435        1.23910
H          3.15320       -3.35638        2.33826
H          2.83235       -4.32352        0.89121
H          4.11962       -3.06037        0.84795
H          0.30202       -1.88925        0.76357
Pd         1.30651        0.33106       -0.23021
O          2.64648        2.06982        0.06992
C          1.63788        2.77297       -0.16827
O          0.51976        2.19591       -0.40525
C          1.70105        4.26651       -0.21302
H          0.80131        4.69827        0.24512
H          2.60714        4.62367        0.29074
H          1.72598        4.58809       -1.26549
H         -4.31792        2.70595        1.13265
H         -3.71189        1.91327        2.59782
H         -5.29063        1.44897        1.92221
