42
OneHPyrrolo23bpyridine_H11_deriv1_Int2_Sub28.log	Energy: -991978.0860989
C          0.53977       -0.46190        0.83845
C         -0.77491       -0.29309        0.26798
C          0.33290       -1.19608        1.99346
C         -1.71084       -0.93609        1.12558
C         -1.34765        0.32552       -0.85009
H          1.06855       -1.56967        2.70348
N         -1.00253       -1.47357        2.16329
N         -3.02509       -1.00675        0.97796
C         -2.71960        0.26151       -1.03404
Cl        -0.36368        1.17031       -1.99719
H         -1.42369       -1.98160        2.92910
C         -3.53482       -0.41615       -0.09680
H         -3.15864        0.73950       -1.90965
C         -5.04617       -0.48159       -0.30877
O          2.05153        1.98113        0.05742
C          1.32111        2.69935        0.73978
O          0.50866        2.25162        1.65021
C          1.29392        4.17512        0.53451
H          0.47278        4.39594       -0.16593
H          1.08890        4.69696        1.47730
H          2.23611        4.50974        0.08689
H          0.51731        1.25240        1.62027
Pd         2.30140       -0.06077        0.06341
O          4.30491       -0.41881       -0.78034
C          4.06401       -1.63617       -0.60425
O          2.94977       -1.97681       -0.07512
C          5.02357       -2.70401       -1.02212
H          4.70373       -3.10325       -1.99694
H          6.03282       -2.28737       -1.12462
H          5.01126       -3.53149       -0.30068
C         -5.71049       -1.25233        0.83014
H         -6.79849       -1.29348        0.66633
H         -5.32483       -2.27924        0.89365
H         -5.51838       -0.77328        1.80028
C         -5.61550        0.94352       -0.35074
H         -5.19144        1.53289       -1.17773
H         -6.70787        0.91274       -0.48906
H         -5.40570        1.47859        0.58815
C         -5.33974       -1.19379       -1.63681
H         -6.42705       -1.26278       -1.79921
H         -4.90711       -0.65895       -2.49581
H         -4.92957       -2.21522       -1.63404
