39
OneHPyrrolo23bpyridine_H11_deriv1_Int2_Sub13.log	Energy: -967324.4304451
C         -0.32060       -0.28456        0.11262
C         -1.22397        0.55527       -0.63189
C         -1.12044       -1.28895        0.63217
C         -2.53312        0.00011       -0.50367
C         -1.14863        1.72620       -1.39442
H         -0.81803       -2.14786        1.22917
N         -2.43762       -1.12470        0.27361
N         -3.65723        0.47211       -1.02183
C         -2.30966        2.24160       -1.95848
Cl         0.36251        2.53353       -1.63519
C         -3.56734       -1.96489        0.64804
C         -3.52933        1.57875       -1.74150
H         -2.27150        3.14906       -2.56172
H         -4.44458        1.98582       -2.18434
O          1.81489        1.52688        1.12455
C          1.01762        2.12475        1.84718
O         -0.17051        1.68461        2.13645
C          1.36177        3.45342        2.42796
H          0.96496        4.22440        1.74844
H          0.88763        3.58539        3.40829
H          2.44964        3.56636        2.48969
H         -0.34055        0.85554        1.60253
Pd         1.64460       -0.28251        0.16038
O          3.70849       -0.98561       -0.16522
C          3.18635       -1.98978       -0.70349
O          1.91034       -2.07642       -0.74721
C          4.00712       -3.07435       -1.32477
H          4.05081       -2.90447       -2.41160
H          5.02722       -3.05499       -0.92264
H          3.53698       -4.05220       -1.15703
H         -4.42575       -1.48679        0.15169
C         -3.40119       -3.37507        0.09912
H         -4.29861       -3.97467        0.31161
H         -3.24803       -3.35446       -0.98934
H         -2.53963       -3.88648        0.55660
C         -3.79059       -1.93717        2.15390
H         -3.91665       -0.90490        2.51150
H         -4.69507       -2.50561        2.41622
H         -2.94300       -2.38824        2.69382
