33
OneHPyrrolo23bpyridine_H11_Int2_Sub9.log	Energy: -816448.8898984
C         -0.30790        0.43016       -1.05490
C         -1.57544        0.66522       -0.40046
C         -0.47763        0.91394       -2.34176
C         -2.44244        1.28029       -1.35511
C         -2.14531        0.44228        0.86590
H          0.24752        0.95347       -3.15303
N         -1.74217        1.41417       -2.51970
N         -3.69924        1.65441       -1.17922
C         -3.46231        0.83560        1.07326
C         -1.37331       -0.21759        1.97554
H         -2.12640        1.81178       -3.36608
C         -4.19185        1.43222        0.03143
H         -3.93205        0.68127        2.04465
H         -5.22908        1.73783        0.20386
O          1.12150       -2.10375       -0.29223
C          0.22265       -2.79649       -0.76936
O         -0.75063       -2.32644       -1.48962
C          0.17568       -4.26526       -0.52143
H         -0.55494       -4.44640        0.28259
H         -0.17052       -4.79715       -1.41675
H          1.15837       -4.62439       -0.19790
H         -0.66876       -1.32989       -1.52249
Pd         1.44082       -0.07482       -0.29902
O          3.46340        0.18354        0.51484
C          3.27015        1.41463        0.37366
O          2.16382        1.81156       -0.13158
C          4.27637        2.43118        0.80720
H          3.98858        2.80906        1.80036
H          5.27061        1.97377        0.87782
H          4.28275        3.28171        0.11310
F         -2.09457       -0.32265        3.09318
F         -0.26211        0.45256        2.28140
F         -1.00448       -1.46390        1.63273
