30
OneHPyrrolo23bpyridine_H9_deriv1_Int2_Sub26.log	Energy: -1181694.2717333
C          0.04740       -0.31878       -0.30963
C         -0.36777       -1.15393       -1.37882
C         -0.94684        0.18136        0.53529
H          0.39592       -1.58109       -2.03716
N         -1.62729       -1.48099       -1.65261
C         -2.28827       -0.13920        0.29488
Cl        -0.56622        1.20833        1.88098
C         -2.52837       -0.97770       -0.82786
C         -3.55098        0.15580        0.89589
N         -3.88334       -1.17673       -0.90171
C         -4.48279       -0.49974        0.12994
H         -3.74899        0.76462        1.77282
H         -4.35386       -1.74186       -1.59555
Cl        -6.17665       -0.55723        0.31054
O          1.94682        1.97209       -0.02985
C          1.23888        2.73816       -0.68053
O          0.27086        2.34485       -1.45971
C          1.42064        4.21408       -0.60342
H          1.27675        4.67105       -1.59089
H          0.64554        4.61472        0.06869
H          2.40849        4.45050       -0.19442
H          0.15079        1.36900       -1.34559
Pd         1.98064       -0.08871       -0.00129
O          4.08326       -0.65415        0.33413
C          3.68239       -1.83999        0.27245
O          2.43991       -2.06087        0.05482
C          4.59944       -3.00286        0.47173
H          4.34391       -3.81086       -0.22654
H          5.64249       -2.68964        0.34430
H          4.46337       -3.38903        1.49354
