39
OneHPyrrolo23bpyridine_H11_Int2_Sub13.log	Energy: -679006.7534900
C         -0.42782       -0.16439       -1.05693
C         -1.63190        0.39669       -0.48301
C         -0.73829       -0.43059       -2.37921
C         -2.61514        0.41911       -1.51156
C         -2.01064        0.88947        0.78176
H         -0.10236       -0.83362       -3.16585
N         -2.04186       -0.08504       -2.64672
N         -3.86936        0.83709       -1.41305
C         -3.32923        1.33139        0.88970
C         -1.01403        0.98646        1.91277
H         -2.53164       -0.19783       -3.52360
C         -4.20365        1.28489       -0.21014
H         -3.70355        1.72642        1.83550
H         -5.23421        1.63845       -0.09184
O          0.99835       -2.08761        0.70363
C          0.12899       -2.94812        0.54811
O         -0.84846       -2.84859       -0.29797
C          0.13698       -4.19969        1.35989
H         -0.74201       -4.19835        2.02199
H          0.04446       -5.07148        0.69738
H          1.05351       -4.25914        1.95559
H         -0.79535       -1.95305       -0.75339
Pd         1.34919       -0.28502       -0.23432
O          3.40123        0.32708        0.34493
C          3.18286        1.36026       -0.32839
O          2.06048        1.48258       -0.93373
C          4.17677        2.47296       -0.42795
H          3.82516        3.31798        0.18346
H          5.15573        2.14298       -0.06092
H          4.24745        2.82410       -1.46632
H         -0.30738        0.14731        1.78248
C         -0.20224        2.27880        1.77785
H          0.57608        2.32691        2.55586
H          0.29172        2.34023        0.79689
H         -0.85564        3.15858        1.89007
C         -1.63864        0.86336        3.29675
H         -2.25237       -0.04587        3.38745
H         -0.85212        0.82358        4.06546
H         -2.27867        1.72782        3.53434
