33
OneHPyrrolo23bpyridine_H11_Int2_Sub17.log	Energy: -816450.6712660
C          0.56657       -0.90893       -0.66595
C         -0.85952       -0.89537       -0.45011
C          0.81448       -2.06950       -1.37709
C         -1.39332       -2.07751       -1.03548
C         -1.77194       -0.02974        0.15687
H          1.75781       -2.44979       -1.76683
N         -0.35299       -2.76674       -1.59025
N         -2.66381       -2.45744       -1.04325
C         -3.10968       -0.40837        0.15065
H         -1.44495        0.91118        0.60171
H         -0.45184       -3.64942       -2.07331
C         -3.50353       -1.62280       -0.45119
C         -4.16099        0.48350        0.73897
H         -4.55927       -1.91314       -0.43647
O          3.32333       -0.69584        0.29064
C          3.23655       -1.62502        1.09694
O          2.10426       -2.12641        1.49574
C          4.45042       -2.25225        1.69052
H          4.42296       -2.11725        2.78202
H          4.43939       -3.33432        1.49692
H          5.35392       -1.79275        1.27739
H          1.37859       -1.72276        0.94268
Pd         1.78409        0.56619       -0.24689
O          2.51424        2.63113        0.01767
C          1.37152        2.99034       -0.34846
O          0.50293        2.09033       -0.62863
C          0.99157        4.42800       -0.49207
H         -0.00959        4.59656       -0.07279
H          1.73334        5.06826       -0.00043
H          0.94805        4.67882       -1.56285
F         -3.63841        1.39183        1.56822
F         -5.07106       -0.21562        1.42922
F         -4.83163        1.15503       -0.20652
