30
OneHPyrrolo23bpyridine_H11_Int2_Sub2.log	Energy: -893374.2065587
C          0.68936        0.15841       -0.22672
C          1.74869       -0.70798        0.23721
C          1.34399        1.12062       -0.97159
C          2.98516       -0.19258       -0.24134
C          1.81574       -1.87671        1.00328
Cl         0.69107        2.45489       -1.82447
N          2.70369        0.92864       -0.98051
N          4.19283       -0.68598       -0.02493
C          3.07520       -2.41582        1.23940
H          0.90509       -2.34721        1.37936
H          3.38696        1.51425       -1.44152
C          4.22012       -1.79063        0.71425
H          3.18800       -3.32863        1.82761
H          5.20922       -2.22049        0.90685
O         -1.72840        1.72764        0.40309
C         -1.11708        2.50247        1.14131
O          0.05738        2.25019        1.63772
C         -1.68624        3.83061        1.50216
H         -1.48193        4.05867        2.55634
H         -1.17975        4.59366        0.89065
H         -2.76055        3.85152        1.29168
H          0.40769        1.42288        1.19954
Pd        -1.23199       -0.21251       -0.05465
O         -3.11238       -1.34858       -0.02863
C         -2.41420       -2.34960       -0.31441
O         -1.14735       -2.20330       -0.43104
C         -3.01300       -3.69781       -0.55105
H         -2.36546       -4.47952       -0.13244
H         -4.01905       -3.74745       -0.11771
H         -3.08274       -3.86738       -1.63650
