34
OneHPyrrolo23bpyridine_H11_deriv1_Int2_Sub8.log	Energy: -965195.0032354
C         -0.45192       -0.64870        0.43292
C         -1.67850       -0.52824       -0.32585
C         -0.64882       -1.79571        1.20274
C         -2.56071       -1.57978        0.06041
C         -2.20232        0.35331       -1.27359
O          0.09607       -2.44177        2.08794
N         -1.89387       -2.32971        0.99603
N         -3.78568       -1.80695       -0.36863
C         -3.49095        0.14070       -1.76002
Cl        -1.27558        1.70130       -1.84372
H         -2.26668       -3.13982        1.47322
C         -4.23391       -0.94387       -1.27919
H         -3.91150        0.81532       -2.50636
H         -5.24715       -1.11227       -1.65811
O          0.71422        2.08479        0.78928
C         -0.22431        2.39676        1.52660
O         -1.09405        1.55423        1.98574
C         -0.43704        3.81873        1.92215
H         -1.19248        4.24422        1.24275
H         -0.82869        3.88148        2.94514
H          0.49436        4.38497        1.81401
H         -0.90956        0.64811        1.56936
Pd         1.24336        0.27218       -0.02051
O          3.25154        0.58764       -0.86357
C          3.20621       -0.61574       -1.20904
O          2.17424       -1.30905       -0.89768
C          4.30091       -1.26012       -1.99626
H          4.00016       -1.29371       -3.05471
H          5.22582       -0.67760       -1.90846
H          4.45362       -2.29415       -1.66001
C          1.42160       -2.00865        2.31165
H          2.02271       -2.09348        1.39416
H          1.44174       -0.96382        2.66285
H          1.82708       -2.66386        3.09235
