39
OneHPyrrolo23bpyridine_H9_deriv1_Int2_Sub13.log	Energy: -967325.2415011
C          0.21765       -0.42913       -0.57807
C          0.09800       -1.26664       -1.71562
C         -0.95762       -0.09112        0.09882
H          1.00791       -1.56762       -2.24584
N         -1.04716       -1.73037       -2.20083
C         -2.19718       -0.56742       -0.35406
Cl        -0.87667        0.94718        1.49480
C         -2.13008       -1.37837       -1.52621
C         -3.58682       -0.46006        0.01410
N         -3.40728       -1.73467       -1.84709
C         -4.27286       -1.18835       -0.93200
C         -4.17937        0.23911        1.20756
H         -3.64880       -2.30854       -2.64242
H         -5.34383       -1.35703       -1.01849
O          1.75824        2.08064       -0.05002
C          1.06236        2.75245       -0.80883
O          0.25389        2.24348       -1.69463
C          1.07182        4.24103       -0.75240
H          1.02389        4.66309       -1.76453
H          0.16974        4.56590       -0.21059
H          1.96000        4.59151       -0.21639
H          0.22890        1.26002       -1.57239
Pd         2.02545        0.03755        0.05520
O          4.09118       -0.26754        0.76825
C          3.84603       -1.49319        0.67806
O          2.69524       -1.86478        0.25802
C          4.84251       -2.53576        1.07118
H          4.80915       -3.37670        0.36586
H          5.84836       -2.10149        1.11613
H          4.57461       -2.92355        2.06595
H         -3.65667        1.20485        1.31089
C         -5.66564        0.52628        1.02822
H         -6.05461        1.09769        1.88435
H         -5.86019        1.10624        0.11335
H         -6.24977       -0.40696        0.97124
C         -3.92885       -0.55899        2.48952
H         -2.85582       -0.73892        2.64492
H         -4.31339       -0.01926        3.36951
H         -4.43387       -1.53678        2.43832
