30
OneHPyrrolo23bpyridine_H11_Int2_Sub18.log	Energy: -893374.6309685
C          0.02338       -0.81873       -0.62970
C         -1.37153       -0.63583       -0.31206
C          0.07193       -1.96295       -1.40839
C         -2.09035       -1.70826       -0.90872
C         -2.11924        0.30862        0.39957
H          0.93209       -2.43785       -1.87867
N         -1.18485       -2.49487       -1.56834
N         -3.39648       -1.91854       -0.84347
C         -3.48933        0.09653        0.46756
H         -1.64960        1.17968        0.85837
H         -1.42781       -3.33170       -2.08056
C         -4.08509       -1.01895       -0.15710
Cl        -4.50715        1.20988        1.32250
H         -5.16841       -1.15621       -0.08111
O          2.82865       -1.01001        0.17867
C          2.65339       -1.95629        0.95020
O          1.48304       -2.32647        1.37942
C          3.79874       -2.76082        1.46118
H          3.82356       -2.68911        2.55862
H          3.64678       -3.81996        1.20861
H          4.73848       -2.39240        1.03775
H          0.79335       -1.80879        0.87444
Pd         1.45044        0.46491       -0.24098
O          2.46904        2.40505        0.03613
C          1.36867        2.92545       -0.25915
O          0.37191        2.16122       -0.51233
C          1.18373        4.40552       -0.35149
H          0.22045        4.69448        0.08978
H          2.01270        4.92373        0.14487
H          1.16229        4.69428       -1.41344
