39
OneHPyrrolo23bpyridine_H11_deriv1_Int2_Sub21.log	Energy: -967326.1089702
C          0.44287       -0.71255        0.94570
C         -0.94959       -0.80856        0.57583
C          0.58033       -1.55888        2.03292
C         -1.57822       -1.71001        1.48059
C         -1.79364       -0.24698       -0.38872
H          1.48056       -1.80245        2.59452
N         -0.61852       -2.14726        2.35148
N         -2.85278       -2.06004        1.49595
C         -3.14832       -0.59093       -0.42569
Cl        -1.13603        0.88213       -1.53324
H         -0.79627       -2.79162        3.10979
C         -3.60129       -1.50405        0.55295
C         -4.09584        0.02279       -1.43512
H         -4.65660       -1.79220        0.55177
O          1.30607        2.06792        0.29007
C          0.54844        2.54277        1.13598
O         -0.03794        1.84211        2.05996
C          0.21657        3.99591        1.13513
H         -0.73109        4.12096        0.58755
H          0.06835        4.36167        2.15874
H          0.99966        4.56019        0.61720
H          0.16365        0.87496        1.90176
Pd         1.93730        0.13211       -0.01420
O          3.80147        0.29415       -1.17662
C          3.83260       -0.95821       -1.13345
O          2.90925       -1.57919       -0.50169
C          4.89653       -1.75030       -1.82358
H          4.50075       -2.10827       -2.78648
H          5.77411       -1.12078       -2.01389
H          5.16621       -2.62987       -1.22441
H         -3.51041        0.17147       -2.35770
C         -5.28371       -0.86659       -1.78529
H         -5.84772       -0.42648       -2.62141
H         -4.96240       -1.87517       -2.08582
H         -5.98628       -0.96957       -0.94332
C         -4.55958        1.40232       -0.96075
H         -3.70240        2.06485       -0.77153
H         -5.20066        1.88235       -1.71684
H         -5.13752        1.31740       -0.02664
