30
OneHPyrrolo23bpyridine_H11_deriv1_Int2_Sub10.log	Energy: -1181663.6526597
C         -0.37307       -0.47323        0.25905
C         -1.44547        0.10716       -0.51290
C         -0.94920       -1.52498        0.94560
C         -2.64081       -0.62508       -0.24912
C         -1.60006        1.17379       -1.40672
H         -0.50044       -2.25479        1.61612
N         -2.29164       -1.61143        0.64026
N         -3.84767       -0.41212       -0.73686
C         -2.85478        1.42412       -1.94936
Cl        -0.25596        2.17344       -1.83097
Cl        -3.37205       -2.71962        1.30416
C         -3.93679        0.60672       -1.58216
H         -2.99453        2.24621       -2.65178
H         -4.92604        0.80581       -2.00743
O          1.46873        1.77410        0.94122
C          0.62299        2.30839        1.65850
O         -0.45638        1.71365        2.07257
C          0.76840        3.72851        2.08497
H          0.19858        4.34902        1.37514
H          0.34484        3.87974        3.08553
H          1.82174        4.02654        2.04581
H         -0.50848        0.81423        1.64408
Pd         1.56228       -0.12709        0.16127
O          3.68707       -0.47684       -0.25245
C          3.33370       -1.60837       -0.66194
O          2.09477       -1.92437       -0.60320
C          4.30535       -2.58325       -1.24307
H          4.25511       -2.51861       -2.34091
H          5.32478       -2.33974       -0.92047
H          4.03561       -3.60769       -0.95487
