46
OneHPyrrolo23bpyridine_H9_deriv1_Int2_Sub27.log	Energy: -1040529.0487099
C          1.08010       -0.23222       -0.31264
C          0.58014       -0.94636       -1.43136
C          0.14380        0.28324        0.58879
H          1.29499       -1.38320       -2.13671
N         -0.70731       -1.14611       -1.69979
C         -1.22260        0.09525        0.35704
Cl         0.63622        1.17350        1.99705
C         -1.55054       -0.63412       -0.81947
C         -2.45351        0.43964        0.99451
N         -2.91602       -0.71320       -0.87382
C         -3.46771       -0.07199        0.21511
H         -2.57988        0.99580        1.92002
H         -3.42090       -1.18903       -1.60848
C         -4.94556       -0.00940        0.41514
O          3.16067        1.87455        0.06094
C          2.49826        2.73278       -0.51870
O          1.47852        2.46846       -1.28529
C          2.80382        4.18213       -0.36090
H          2.66686        4.70966       -1.31357
H          2.08639        4.60127        0.36199
H          3.82039        4.31245        0.02471
H          1.27848        1.49959       -1.22250
Pd         3.02910       -0.18151       -0.02693
O          5.08705       -0.93982        0.23609
C          4.58520       -2.08145        0.11415
O          3.32609       -2.18620       -0.09134
C          5.40374       -3.32728        0.22883
H          5.07162       -4.06814       -0.51051
H          6.46778       -3.09541        0.10068
H          5.24921       -3.76102        1.22868
H         -5.10417        0.55640        1.34940
C         -5.56730       -1.40114        0.60338
H         -5.06869       -1.91704        1.43893
H         -5.37127       -2.01073       -0.29796
C         -7.07159       -1.31821        0.83475
H         -7.49407       -2.33067        0.93630
H         -7.26042       -0.80647        1.79574
C         -7.77079       -0.55653       -0.28578
H         -8.85004       -0.47485       -0.07961
H         -7.67788       -1.12935       -1.22660
C         -7.16074        0.82722       -0.48020
H         -7.35372        1.43951        0.41920
H         -7.64720        1.34985       -1.31935
C         -5.65656        0.74982       -0.71475
H         -5.46434        0.23531       -1.67433
H         -5.22167        1.75704       -0.81222
