33
OneHPyrrolo23bpyridine_H9_deriv1_Int2_Sub14.log	Energy: -918026.5382052
C         -0.23947       -0.44881       -0.38020
C         -0.50940       -1.34768       -1.44408
C         -1.31683       -0.06276        0.42175
H          0.32395       -1.68667       -2.06879
N         -1.70753       -1.83146       -1.74901
C         -2.60408       -0.54628        0.15099
Cl        -1.07291        1.03120        1.75310
C         -2.69473       -1.42929       -0.96392
C         -3.92698       -0.40689        0.69937
N         -4.00317       -1.79893       -1.08273
C         -4.73479       -1.19146       -0.09080
C         -4.36007        0.40462        1.87407
H         -4.34832       -2.43274       -1.78937
H         -5.80716       -1.35944       -0.00685
O          1.36434        2.06452       -0.14354
C          0.58107        2.71379       -0.83368
O         -0.32824        2.17887       -1.59813
C          0.59574        4.20333       -0.82612
H          0.41402        4.59414       -1.83555
H         -0.22734        4.54640       -0.17976
H          1.54602        4.56813       -0.42246
H         -0.33928        1.20038       -1.43896
Pd         1.63798        0.02439       -0.00866
O          3.77968       -0.27376        0.43327
C          3.52063       -1.49967        0.41532
O          2.32301       -1.87553        0.16369
C          4.55703       -2.53700        0.70575
H          4.42684       -3.39968        0.03896
H          5.56139       -2.10939        0.60201
H          4.42307       -2.89080        1.73948
H         -4.14131        1.47405        1.73209
H         -3.84202        0.09409        2.79429
H         -5.44172        0.29783        2.03996
