39
OneHPyrrolo23bpyridine_H11_deriv1_Int2_Sub29.log	Energy: -967329.2264058
C         -0.28293       -0.42879       -0.80025
C          0.99962       -0.26191       -0.15825
C         -0.00901       -1.12665       -1.96275
C          1.98730       -0.87121       -0.98731
C          1.50142        0.33067        1.00456
H         -0.70353       -1.48739       -2.71940
N          1.33710       -1.38542       -2.07366
N          3.29074       -0.93067       -0.77411
C          2.86617        0.27742        1.25927
Cl         0.44786        1.12950        2.12096
H          1.80134       -1.86622       -2.83204
C          3.72975       -0.36202        0.34677
H          3.26610        0.73114        2.16670
C          5.21857       -0.43070        0.60642
O         -1.86611        1.97455       -0.03599
C         -1.11331        2.71885       -0.66396
O         -0.25003        2.30415       -1.54266
C         -1.11848        4.18955       -0.42351
H         -0.33585        4.40545        0.32116
H         -0.87577        4.73644       -1.34288
H         -2.08634        4.50016       -0.01510
H         -0.24635        1.30441       -1.53735
Pd        -2.08554       -0.06995       -0.10199
O         -4.12132       -0.47393        0.63535
C         -3.85539       -1.68363        0.44290
O         -2.71244       -1.99708       -0.03973
C         -4.81876       -2.77330        0.78934
H         -4.54035       -3.19136        1.76898
H         -5.83749       -2.37224        0.85268
H         -4.76033       -3.58322        0.05045
H          5.41104        0.08986        1.55941
C          5.66682       -1.88409        0.74785
H          6.75014       -1.94449        0.93478
H          5.14637       -2.38520        1.57805
H          5.44048       -2.43779       -0.17584
C          5.98715        0.28496       -0.50253
H          5.69893        1.34503       -0.57072
H          7.07233        0.23489       -0.32361
H          5.77115       -0.18700       -1.47286
