35
Oxazole_H7_deriv1_Int2_Sub14.log	Energy: -619771.3823673
C         -0.20570       -0.65213       -0.38288
C         -0.66155       -1.46463       -1.38734
O         -1.31517       -0.33065        0.36501
H         -0.08114       -1.93285       -2.17997
N         -2.02617       -1.64294       -1.26441
C         -2.36024       -0.95593       -0.22037
C         -3.71485       -0.76098        0.39300
O          0.60590        1.92073        0.45542
C         -0.21084        2.48484       -0.27398
O         -0.67602        1.97494       -1.37921
C         -0.76059        3.82398        0.07413
H         -0.15505        4.28838        0.85913
H         -0.80788        4.45929       -0.82007
H         -1.79084        3.68552        0.43790
H         -0.36384        1.03664       -1.46127
Pd         1.51214        0.10739        0.10131
O          3.64877        0.33100        0.49543
C          3.75193       -0.88021        0.18309
O          2.69812       -1.51113       -0.17546
C          5.05283       -1.61101        0.24406
H          5.08021       -2.20612        1.16975
H          5.13743       -2.30568       -0.60198
H          5.88714       -0.89956        0.25300
C         -3.71898       -1.38029        1.79782
C         -3.99948        0.74466        0.49112
H         -5.00076        0.91457        0.91605
H         -3.26383        1.24197        1.14126
H         -3.96204        1.21928       -0.50168
C         -4.75744       -1.44199       -0.49017
H         -4.54329       -2.51464       -0.59563
H         -5.75813       -1.32235       -0.04768
H         -4.76457       -1.00852       -1.50049
H         -3.52364       -2.46209        1.74988
H         -4.69923       -1.22916        2.27625
H         -2.94919       -0.92097        2.43553
