35
Oxazole_H6_deriv1_Int2_Sub14.log	Energy: -619769.5971041
C          0.23591       -0.61600        0.01070
C          0.52684       -1.91793        0.29403
N          1.43640        0.05313       -0.18152
O          1.88281       -2.05776        0.27537
H         -0.07029       -2.79882        0.50598
C          2.36502       -0.83467       -0.01288
C          3.85375       -0.66655       -0.09791
O         -0.68995        1.97845       -0.59450
C          0.04099        2.56675        0.20122
O          0.23818        2.16319        1.42716
C          0.78406        3.79400       -0.18335
H          1.79311        3.46810       -0.48318
H          0.29858        4.27829       -1.03728
H          0.88147        4.47944        0.66739
H         -0.16641        1.27167        1.51559
Pd        -1.53512        0.15586       -0.16564
O         -3.75309        0.27132       -0.23305
C         -3.73100       -0.95212        0.02900
O         -2.60079       -1.53147        0.19990
C         -4.97937       -1.77019        0.12330
H         -5.09394       -2.35016       -0.80528
H         -4.90335       -2.48409        0.95426
H         -5.85194       -1.11783        0.24672
C          4.16707        0.80400       -0.36519
H          5.25611        0.94912       -0.42940
H          3.71182        1.13893       -1.30829
H          3.77566        1.44154        0.44119
C          4.48271       -1.11038        1.22981
H          5.57804       -1.00894        1.18268
H          4.11726       -0.49411        2.06547
H          4.24319       -2.16106        1.44901
C          4.38692       -1.54048       -1.24195
H          5.48139       -1.44396       -1.31501
H          4.14523       -2.60030       -1.07422
H          3.94985       -1.23749       -2.20547
