35
Oxazole_H6_Int2_Sub4.log	Energy: -619767.1968603
C         -0.82585       -0.26360       -0.69961
C         -1.89234        0.50965       -0.30175
N         -1.25252       -1.09252       -1.73339
O         -2.94872        0.17134       -1.10273
C         -2.11375        1.61750        0.69015
C         -2.48868       -0.78409       -1.92323
H         -3.19185       -1.20093       -2.64307
O          1.09010       -2.26923        0.06092
C          0.23889       -2.96875        0.60882
O         -0.89821       -2.51358        1.05320
C          0.44525       -4.43191        0.79662
H         -0.17754       -4.96358        0.06059
H          1.49755       -4.68787        0.63595
H          0.11066       -4.73699        1.79693
H         -0.99882       -1.57318        0.74904
Pd         1.05742       -0.22873       -0.19741
O          3.10440        0.52500        0.17061
C          2.64366        1.66119       -0.08183
O          1.39813        1.77642       -0.36101
C          3.49796        2.88802       -0.08577
H          3.62791        3.22977       -1.12370
H          2.99563        3.69446        0.46599
H          4.47921        2.67078        0.35199
C         -1.81539        2.95690       -0.00468
H         -2.00132        3.79335        0.68820
H         -0.76538        2.99281       -0.32883
H         -2.46159        3.09370       -0.88514
C         -3.56736        1.59278        1.17543
H         -3.80724        0.63938        1.67148
H         -3.72997        2.40483        1.90019
H         -4.27216        1.72843        0.34316
C         -1.17569        1.44489        1.88752
H         -1.35557        2.24974        2.61684
H         -1.34699        0.48343        2.39733
H         -0.12198        1.49600        1.57950
