26
Oxazole_H6_Int2_Sub6.log	Energy: -545818.4487695
C         -0.81235        1.00144       -0.23160
C         -0.70343        2.29425        0.21811
N         -2.04854        0.86504       -0.85597
O         -1.85526        2.94221       -0.13123
C          0.32836        3.06776        0.93960
C         -2.60083        2.02630       -0.76539
H         -3.57607        2.34521       -1.13071
O         -0.96868       -1.83567       -0.37931
C         -1.95486       -1.90445        0.35284
O         -2.16843       -1.09162        1.35079
C         -3.00967       -2.93081        0.14068
H         -3.83354       -2.44482       -0.40552
H         -2.61738       -3.75589       -0.46301
H         -3.40293       -3.28780        1.10087
H         -1.50657       -0.36242        1.29159
Pd         0.51281       -0.43028       -0.17901
O          2.45030       -1.49174       -0.10152
C          2.97328       -0.35910       -0.00541
O          2.21417        0.67315        0.01756
C          4.45440       -0.16578        0.05799
H          4.80545        0.21006       -0.91514
H          4.70480        0.58994        0.81469
H          4.95278       -1.11725        0.27761
H          0.57984        3.98810        0.38980
H          1.23569        2.45918        1.03218
H         -0.01769        3.36508        1.94289
