44
Oxazole_H6_deriv1_Int2_Sub5.log	Energy: -693724.3656086
C          0.24850       -0.14518       -0.07003
C          0.63799       -1.36522        0.41616
N          1.37435        0.50480       -0.56702
O          1.98717       -1.46732        0.20729
C         -0.06191       -2.52481        1.03342
C          2.35978       -0.31143       -0.38141
C          3.81259       -0.13427       -0.71108
O         -0.82228        2.49102       -0.03906
C         -0.03302        2.86920        0.82551
O          0.45058        2.09147        1.75389
C          0.45552        4.27420        0.86651
H          1.45002        4.29193        0.39312
H         -0.22054        4.92560        0.30279
H          0.56832        4.61510        1.90345
H          0.20634        1.15990        1.52809
Pd        -1.55272        0.57851       -0.21711
O         -3.75589        0.66392       -0.48710
C         -3.70511       -0.58397       -0.55934
O         -2.57228       -1.16917       -0.43040
C         -4.91888       -1.41821       -0.81938
H         -4.91996       -1.72121       -1.87766
H         -4.88810       -2.33230       -0.21159
H         -5.82797       -0.84107       -0.61282
C          4.01179        1.24501       -1.33435
H          5.07196        1.38948       -1.59226
H          3.40747        1.35879       -2.24531
H          3.70991        2.03950       -0.63652
C          4.63178       -0.25701        0.58137
H          4.48308       -1.23959        1.05263
H          5.70447       -0.13794        0.36342
H          4.34121        0.51852        1.30670
C          4.23468       -1.23110       -1.69865
H          5.30399       -1.13180       -1.94184
H          4.07011       -2.23142       -1.27184
H          3.66114       -1.15909       -2.63512
H         -1.08903       -2.17626        1.21961
C         -0.14054       -3.69720        0.05348
H         -0.67230       -4.54715        0.50867
H         -0.68192       -3.39993       -0.85570
H          0.86638       -4.03982       -0.23301
C          0.58463       -2.92941        2.35785
H          0.59571       -2.09141        3.07144
H          0.03419       -3.76335        2.81920
H          1.62527       -3.25452        2.20345
