39
Oxazole_H7_Int2_Sub3.log	Energy: -668319.1983835
C          0.31050       -0.81072       -0.83173
C         -1.00474       -1.18635       -0.69881
O          0.88464       -1.70999       -1.70408
C         -2.08214       -0.53294        0.09953
N         -1.23696       -2.30187       -1.48774
C         -0.10161       -2.55329       -2.04531
H          0.14635       -3.35302       -2.74240
O          2.89687       -0.52749        0.35348
C          2.81554       -1.61098        0.93629
O          1.69106       -2.20159        1.21856
C          4.03672       -2.34962        1.36211
H          4.92062       -1.71329        1.25227
H          3.92351       -2.69070        2.40017
H          4.14130       -3.24544        0.73116
H          0.94555       -1.70043        0.78707
Pd         1.32506        0.69662       -0.14583
O          1.83742        2.74440        0.44197
C          0.70900        3.06787        0.00020
O         -0.04574        2.15194       -0.48050
C          0.22862        4.48172       -0.00693
H          0.32640        4.88368       -1.02698
H         -0.83459        4.51987        0.26519
H          0.83088        5.09094        0.67734
H         -1.59685        0.23566        0.72679
C         -2.80181       -1.53270        1.00995
H         -2.07615       -1.99928        1.69748
H         -3.20027       -2.34734        0.38089
C         -3.93167       -0.87448        1.79274
H         -4.45228       -1.62470        2.41004
H         -3.50464       -0.13626        2.49625
C         -4.91646       -0.16820        0.86736
H         -5.70671        0.32824        1.45405
H         -5.42251       -0.92116        0.23624
C         -4.20484        0.83820       -0.03005
H         -3.78521        1.64874        0.59365
H         -4.92145        1.31666       -0.71741
C         -3.07686        0.18675       -0.82045
H         -3.49022       -0.55110       -1.53066
H         -2.53296        0.93802       -1.41364
