35
Oxazole_H6_Int2_Sub12.log	Energy: -619769.5970978
C          0.23593       -0.61581        0.01094
C          0.52676       -1.91770        0.29459
N          1.43646        0.05326       -0.18116
O          1.88275       -2.05759        0.27591
H         -0.07039       -2.79851        0.50682
C          2.36502       -0.83464       -0.01275
C          3.85377       -0.66671       -0.09808
O         -0.68996        1.97854       -0.59443
C          0.04092        2.56694        0.20125
O          0.23798        2.16356        1.42728
C          0.78407        3.79410       -0.18344
H          1.79307        3.46805       -0.48327
H          0.29863        4.27836       -1.03742
H          0.88157        4.47961        0.66722
H         -0.16660        1.27205        1.51580
Pd        -1.53513        0.15595       -0.16559
O         -3.75316        0.27105       -0.23327
C         -3.73090       -0.95237        0.02881
O         -2.60061       -1.53151        0.19997
C         -4.97914       -1.77066        0.12294
H         -5.09366       -2.35037       -0.80581
H         -4.90300       -2.48478        0.95369
H         -5.85180       -1.11846        0.24655
C          4.16723        0.80393       -0.36461
H          5.25628        0.94892       -0.42899
H          3.71182        1.13944       -1.30743
H          3.77611        1.44109        0.44221
C          4.48305       -1.11144        1.22914
H          4.24346       -2.16223        1.44778
H          5.57837       -1.01010        1.18177
H          4.11792       -0.49563        2.06530
C          4.38636       -1.54004       -1.24286
H          5.48083       -1.44369       -1.31629
H          4.14452       -2.59991       -1.07568
H          3.94897       -1.23633       -2.20601
