32
Oxazole_H6_Int2_Sub13.log	Energy: -595119.5170162
C          0.38934       -0.71529       -0.11115
C          0.59223       -2.04956        0.08627
N          1.62770       -0.12669       -0.32428
O          1.93129       -2.28823       -0.00563
H         -0.06079       -2.89465        0.27832
C          2.49173       -1.08984       -0.25111
C          3.97646       -1.02276       -0.39488
O         -0.36389        1.97299       -0.51623
C          0.44080        2.45475        0.27997
O          0.65897        1.95839        1.46764
C          1.25475        3.64962       -0.06072
H          2.22704        3.27502       -0.41925
H          0.77429        4.21826       -0.86395
H          1.43075        4.27252        0.82483
H          0.19367        1.09388        1.51888
Pd        -1.32449        0.19273       -0.15920
O         -3.52780        0.47354       -0.11730
C         -3.58759       -0.76229        0.07038
O         -2.49834       -1.43211        0.15443
C         -4.88934       -1.49128        0.17302
H         -5.08641       -2.00076       -0.78267
H         -4.83293       -2.26045        0.95476
H         -5.70397       -0.78609        0.37617
H          4.23494       -1.62251       -1.28778
C          4.42367        0.41310       -0.62904
H          5.51269        0.45538       -0.77726
H          3.93109        0.84516       -1.51132
H          4.16696        1.04226        0.23723
C          4.67246       -1.65947        0.80892
H          4.33577       -2.69443        0.96259
H          5.76279       -1.66979        0.66159
H          4.45800       -1.09082        1.72765
