44
Oxazole_H7_deriv1_Int2_Sub12.log	Energy: -693716.8732271
C         -0.28518       -0.34534        0.68893
C          0.14227       -0.92746        1.85294
O          0.85857        0.04216        0.02919
H         -0.46721       -1.36456        2.64148
N          1.52096       -0.90232        1.91088
C          1.89641       -0.32589        0.81360
C          3.29096       -0.03051        0.34134
O         -1.30826        1.87793       -0.72108
C         -0.68271        2.68302       -0.02961
O         -0.32721        2.46138        1.20429
C         -0.25331        3.99951       -0.57577
H         -0.80063        4.22293       -1.49727
H         -0.39643        4.78840        0.17410
H          0.82446        3.94000       -0.79494
H         -0.52843        1.51791        1.43399
Pd        -2.00971        0.04340       -0.10852
O         -4.08779       -0.14403       -0.75620
C         -4.06830       -1.27944       -0.22187
O         -2.99550       -1.66250        0.36101
C         -5.24049       -2.20338       -0.27028
H         -5.07232       -2.94486       -1.06638
H         -5.33447       -2.74730        0.67878
H         -6.15588       -1.64275       -0.49420
C          3.67065       -1.01580       -0.84280
C          3.34536        1.44083       -0.09732
H          4.34213        1.69776       -0.48522
H          2.60434        1.66480       -0.87607
H          3.14135        2.09549        0.76400
C          4.22194       -0.21075        1.54469
H          4.26807       -1.25595        1.87750
H          5.23715        0.13206        1.30312
H          3.85289        0.37774        2.39596
C          2.97225       -0.62036       -2.14926
H          3.16469       -1.38884       -2.91411
H          1.88369       -0.53561       -2.02479
H          3.34953        0.33375       -2.54620
C          5.18288       -1.00071       -1.08980
H          5.74523       -1.44528       -0.25647
H          5.41401       -1.58779       -1.99224
H          5.56546        0.01822       -1.25672
C          3.24600       -2.44589       -0.49126
H          3.62177       -3.14611       -1.25348
H          3.63870       -2.76805        0.48397
H          2.15078       -2.54856       -0.45800
