26
Oxazole_H7_Int2_Sub9.log	Energy: -732557.5987677
C          0.18629       -0.75916        0.18368
C          0.54011       -1.91905        0.82574
O          1.35900       -0.21127       -0.27165
H         -0.11601       -2.63624        1.31366
N          1.90751       -2.08489        0.77325
C          2.32432       -1.05419        0.12338
C          3.72450       -0.68932       -0.26075
O         -0.47771        1.88444       -0.51145
C          0.29481        2.39348        0.30217
O          0.45527        1.93961        1.51611
C          1.15050        3.55413       -0.05030
H          0.77019        4.04734       -0.95060
H          1.22604        4.25317        0.79214
H          2.15845        3.15490       -0.25008
H         -0.05109        1.10158        1.60366
Pd        -1.49880        0.13932       -0.14470
O         -3.63300        0.49230       -0.37787
C         -3.78667       -0.72347       -0.10629
O         -2.74540       -1.42195        0.15724
C         -5.12561       -1.38079       -0.10959
H         -5.25272       -1.91548       -1.06347
H         -5.18789       -2.12005        0.69965
H         -5.91708       -0.62765       -0.01658
F          4.60333       -1.42703        0.39377
F          3.95995        0.60182        0.01673
F          3.93088       -0.84888       -1.56963
