51
Oxazole_H6_deriv1_Int2_Sub3.log	Energy: -766924.5639539
C         -0.44977       -0.21823       -0.18185
C         -0.23815        1.11221        0.06722
N         -1.78319       -0.38755       -0.54088
O         -1.42727        1.75427       -0.15093
C          0.94373        1.92768        0.43986
C         -2.30676        0.79447       -0.50781
C         -3.71896        1.21467       -0.79022
O         -0.59016       -3.01515        0.31610
C         -1.39156       -2.87463        1.23901
O         -1.42362       -1.82844        2.01663
C         -2.42254       -3.90669        1.53262
H         -3.36616       -3.56995        1.07476
H         -2.13312       -4.86604        1.09101
H         -2.58429       -3.99603        2.61430
H         -0.82911       -1.14076        1.62653
Pd         0.86131       -1.65709       -0.20267
O          2.79968       -2.71656       -0.45717
C          3.27170       -1.59563       -0.74900
O          2.50211       -0.57110       -0.72634
C          4.70087       -1.40954       -1.14889
H          4.74847       -1.26388       -2.23887
H          5.11070       -0.50681       -0.67605
H          5.29011       -2.29361       -0.87833
C         -4.54269       -0.02416       -1.13263
H         -5.58117        0.26619       -1.35312
H         -4.12811       -0.54595       -2.00661
H         -4.54880       -0.73648       -0.29482
C         -4.28911        1.90451        0.45700
H         -3.69360        2.78873        0.72753
H         -5.32439        2.22984        0.27070
H         -4.29504        1.21879        1.31822
C         -3.71741        2.19642       -1.97041
H         -4.74339        2.53381       -2.18486
H         -3.10352        3.08136       -1.74698
H         -3.31547        1.72026       -2.87751
H          1.72424        1.20276        0.72249
C          0.66877        2.85141        1.63210
H          0.32668        2.25457        2.49365
H         -0.16247        3.53030        1.37218
C          1.90245        3.66704        2.00115
H          1.67144        4.34555        2.83841
H          2.69150        2.98353        2.36395
C          2.43349        4.45346        0.80745
H          3.34416        5.00741        1.08794
H          1.68587        5.21259        0.51322
C          2.70965        3.53778       -0.37988
H          3.52991        2.84310       -0.12324
H          3.05877        4.12325       -1.24594
C          1.48004        2.72257       -0.75993
H          0.68342        3.39350       -1.12881
H          1.71687        2.01883       -1.57198
