44
Oxazole_H7_deriv1_Int2_Sub4.log	Energy: -693725.0204837
C         -0.36487        0.22248       -0.29354
C         -1.03767        1.28460        0.26796
O         -1.28388       -0.43525       -1.08621
C         -0.58713        2.37206        1.21135
N         -2.34824        1.27423       -0.19315
C         -2.43680        0.25246       -0.97835
C         -3.62597       -0.25686       -1.72217
O          0.67422       -2.28786        0.57059
C         -0.23922       -2.45415        1.38121
O         -1.00527       -1.50367        1.82850
C         -0.55103       -3.81070        1.91484
H          0.23735       -4.51732        1.63637
H         -0.67118       -3.76426        3.00576
H         -1.51265       -4.13996        1.49219
H         -0.80423       -0.65275        1.33965
Pd         1.42030       -0.54744       -0.23394
O          3.57891       -0.82427       -0.45066
C          3.60383        0.33357       -0.93294
O          2.50444        0.98283       -1.02487
C          4.86598        0.97252       -1.41233
H          4.82074        1.08099       -2.50628
H          4.95594        1.98134       -0.98603
H          5.73182        0.35872       -1.13829
H         -3.35931       -0.23900       -2.79522
C         -3.91365       -1.71037       -1.33945
H         -4.76271       -2.10121       -1.91995
H         -3.04203       -2.35268       -1.53167
H         -4.16809       -1.78518       -0.27000
C         -4.82648        0.65073       -1.49849
H         -4.60322        1.68638       -1.78936
H         -5.68745        0.29678       -2.08450
H         -5.10940        0.66442       -0.43529
C         -0.63941        3.70308        0.44830
H         -0.37150        4.53962        1.11329
H          0.06482        3.69283       -0.39743
H         -1.65027        3.88043        0.05285
C         -1.56099        2.42185        2.39552
H         -1.52366        1.48728        2.97846
H         -1.30307        3.25305        3.07050
H         -2.59274        2.55986        2.04249
C          0.83279        2.12908        1.71872
H          1.11942        2.92863        2.41950
H          0.91145        1.17146        2.25931
H          1.56005        2.11672        0.89420
