38
Oxazole_H6_deriv1_Int2_Sub6.log	Energy: -644424.5532273
C          0.25195       -0.49431        0.06501
C          0.60279       -1.70499        0.60389
N          1.41180        0.12985       -0.38425
O          1.96166       -1.82028        0.48111
C         -0.12491       -2.82597        1.23390
C          2.37799       -0.68603       -0.11621
C          3.84676       -0.53147       -0.38174
O         -0.69225        2.14644       -0.36430
C          0.08289        2.64236        0.45168
O          0.43878        2.05203        1.55967
C          0.70228        3.97456        0.22249
H          1.69698        3.79631       -0.21653
H          0.10060        4.55399       -0.48579
H          0.83712        4.51189        1.16936
H          0.11993        1.11972        1.51874
Pd        -1.52297        0.27859       -0.17544
O         -3.71698        0.47008       -0.41562
C         -3.75734       -0.77060       -0.26104
O         -2.66409       -1.40569       -0.05257
C         -5.03523       -1.54383       -0.33497
H         -5.06428       -2.09273       -1.28851
H         -5.07489       -2.28526        0.47454
H         -5.89423       -0.86464       -0.28289
C          4.09865        0.86067       -0.95606
H          5.17007        0.98832       -1.17305
H          3.52892        1.01482       -1.88321
H          3.79184        1.64025       -0.24310
C          4.61496       -0.71044        0.93452
H          4.42490       -1.70130        1.37204
H          5.69738       -0.61300        0.75807
H          4.31819        0.05179        1.67135
C          4.28267       -1.60762       -1.38660
H          5.36259       -1.52649       -1.58629
H          4.07949       -2.61600       -0.99687
H          3.74668       -1.49406       -2.34101
H          0.10234       -3.77476        0.72263
H         -1.20335       -2.64195        1.16169
H          0.15609       -2.94562        2.29303
