41
Oxazole_H7_deriv1_Int2_Sub5.log	Energy: -669075.4224316
C         -0.35073        0.29262       -0.23321
C         -0.83981        1.44937        0.32010
O         -1.40517       -0.28886       -0.90670
C         -0.12335        2.48037        1.13408
N         -2.17995        1.57527       -0.01192
C         -2.45811        0.53421       -0.72778
C         -3.76382        0.13353       -1.32976
O          0.49281       -2.38124        0.16516
C         -0.39727       -2.59347        0.99096
O         -0.97175       -1.66447        1.69892
C         -0.91055       -3.97077        1.23179
H         -0.23320       -4.70934        0.79100
H         -1.04001       -4.14345        2.30840
H         -1.90273       -4.05394        0.76129
H         -0.66828       -0.77343        1.37074
Pd         1.38574       -0.57158       -0.23262
O          3.55678       -0.86987       -0.33810
C          3.63203        0.36107       -0.56558
O          2.55138        1.04712       -0.59402
C          4.93293        1.04577       -0.83009
H          5.03292        1.20856       -1.91416
H          4.94809        2.02960       -0.34266
H          5.76664        0.42340       -0.48398
H         -3.62110        0.13090       -2.42667
C         -4.13587       -1.28948       -0.90779
H         -5.08162       -1.59662       -1.37877
H         -3.35724       -2.00778       -1.20333
H         -4.26288       -1.34911        0.18505
C         -4.84556        1.14498       -0.98035
H         -4.55987        2.15775       -1.29566
H         -5.79335        0.87560       -1.46935
H         -5.01010        1.17691        0.10717
H          0.88907        2.08658        1.32211
C          0.01387        3.77628        0.33549
H          0.52957        4.54878        0.92717
H          0.59073        3.60443       -0.58491
H         -0.97896        4.16148        0.05530
C         -0.83220        2.71001        2.46710
H         -0.87248        1.78617        3.06544
H         -0.31423        3.47817        3.06180
H         -1.86736        3.04293        2.29613
