40
Pyrazole_H7_Int2_Sub19.log	Energy: -655850.5789782
C          0.18183        0.14551        0.33252
C         -0.83714       -0.48545       -0.37787
C         -0.53112        0.91956        1.28984
N         -2.01202       -0.07518        0.15409
H         -0.79846       -1.20434       -1.19399
H         -0.13070        1.57107        2.06730
N         -1.84434        0.77714        1.16296
C         -3.35271       -0.44868       -0.26182
O          2.54104        1.82008        0.41384
C          2.01255        2.75657       -0.18900
O          0.93490        2.63628       -0.90765
C          2.57875        4.13373       -0.12800
H          3.54904        4.12157        0.37864
H          2.67512        4.53792       -1.14536
H          1.87661        4.78319        0.41618
H          0.55958        1.72408       -0.75455
Pd         2.10080       -0.17636        0.14215
O          4.00660       -1.26532       -0.15571
C          3.29416       -2.28692       -0.28725
O          2.02125       -2.17096       -0.21561
C          3.88411       -3.64568       -0.49490
H          3.89966       -4.17492        0.47029
H          3.26284       -4.22956       -1.18668
H          4.91173       -3.55961       -0.86794
H         -3.21544       -1.16993       -1.08541
C         -4.11948        0.76242       -0.78813
H         -3.56703        1.20686       -1.63168
H         -4.14114        1.51908        0.01366
C         -5.53741        0.38484       -1.20050
H         -6.07909        1.28109       -1.54233
H         -5.49714       -0.30009       -2.06730
C         -6.28869       -0.29414       -0.06041
H         -7.29865       -0.58878       -0.38777
H         -6.42498        0.42822        0.76424
C         -5.52257       -1.50644        0.45821
H         -5.48275       -2.27665       -0.33383
H         -6.05350       -1.96628        1.30675
C         -4.10440       -1.13531        0.87567
H         -4.12487       -0.44058        1.73143
H         -3.54084       -2.02415        1.20103
