36
Pyrazole_H7_Int2_Sub20.log	Energy: -607300.9768115
C         -0.41432        0.15205        0.34478
C         -1.40099       -0.55903       -0.33509
C         -1.16252        0.93981        1.26124
N         -2.59800       -0.17692        0.17262
H         -1.30594       -1.31244       -1.11125
H         -0.79565        1.64713        2.00579
N         -2.46611        0.73139        1.13882
C         -3.95518       -0.61654       -0.19719
O          1.87640        1.92279        0.33419
C          1.30925        2.80283       -0.31670
O          0.23494        2.60073       -1.02174
C          1.82100        4.20245       -0.33513
H          2.79160        4.25687        0.16812
H          1.90049        4.55184       -1.37403
H          1.09456        4.85384        0.17366
H         -0.10327        1.68354       -0.81713
Pd         1.51640       -0.10174        0.17241
O          3.46487       -1.13106       -0.06544
C          2.79257       -2.18487       -0.14130
O          1.51586       -2.11469       -0.07742
C          3.43541       -3.52925       -0.27200
H          3.48687       -3.99368        0.72484
H          2.83018       -4.18144       -0.91512
H          4.45378       -3.42543       -0.66553
C         -3.86908       -1.65770       -1.30559
H         -4.88557       -1.98108       -1.57064
H         -3.40010       -1.24911       -2.21305
H         -3.30635       -2.54693       -0.98525
C         -4.60832       -1.21848        1.04649
H         -4.62413       -0.47974        1.85894
H         -5.63993       -1.52832        0.82282
H         -4.04500       -2.09883        1.39075
C         -4.73346        0.60812       -0.67738
H         -5.76739        0.32893       -0.92895
H         -4.75122        1.37496        0.10871
H         -4.26152        1.04028       -1.57295
