34
Pyrazole_H6_deriv1_Int2_Sub32.log	Energy: -629817.5698924
C          0.27080       -0.58787        0.02456
C          1.53754       -0.25986        0.51085
N          0.46528       -1.71748       -0.70226
C          2.40355       -1.26501        0.00246
H          1.78845        0.55754        1.18353
H         -0.26888       -2.25797       -1.14551
N          1.72411       -2.14344       -0.72575
C          3.88893       -1.42443        0.17219
O         -0.87457        2.06008        0.55263
C         -0.07615        2.72562       -0.10905
O          0.76211        2.21665       -0.96603
C         -0.00130        4.20688        0.03146
H         -0.80078        4.56575        0.68727
H          0.98129        4.47991        0.44433
H         -0.07621        4.67135       -0.96208
H          0.76959        1.22671       -0.87841
Pd        -1.52135        0.13473        0.19966
O         -3.74396        0.13791        0.20452
C         -3.65205       -1.07590       -0.07816
O         -2.48273       -1.59175       -0.21660
C         -4.84753       -1.95776       -0.23369
H         -4.70634       -2.64309       -1.08008
H         -4.95662       -2.56924        0.67511
H         -5.75090       -1.35130       -0.36804
H          4.11278       -2.45863       -0.12796
O          4.63349       -0.64430       -0.74727
H          3.49146        1.10337       -0.81052
C          4.52365        0.74048       -0.64506
H          4.87023        1.13302        0.33059
C          4.33909       -1.21986        1.61198
H          3.86632       -1.96770        2.26478
H          5.43133       -1.32927        1.68272
H          4.06667       -0.22657        2.00002
H          5.16412        1.17258       -1.42722
