27
Pyrazole_H7_Int2_Sub6.log	Energy: -533354.8492831
C         -0.84441        0.96754       -0.31240
C         -0.89141        2.15597        0.42196
C         -1.91232        1.10743       -1.24608
N         -1.92831        2.86151       -0.09214
C         -0.04477        2.65385        1.53906
H         -2.22487        0.40862       -2.02264
N         -2.55830        2.25386       -1.09660
H         -2.24655        3.77397        0.20946
O         -0.85369       -1.93061       -0.30900
C         -1.89492       -2.00872        0.34737
O         -2.39294       -1.02135        1.03037
C         -2.68397       -3.27224        0.39510
H         -2.12475       -4.08598       -0.07760
H         -2.92432       -3.51800        1.43879
H         -3.63751       -3.11511       -0.13135
H         -1.87640       -0.19473        0.80128
Pd         0.53801       -0.41542       -0.20696
O          2.54432       -1.35262       -0.06843
C          2.98801       -0.18395       -0.01439
O          2.16253        0.79593       -0.04155
C          4.45286        0.11049        0.05125
H          4.79862        0.40893       -0.95034
H          4.64191        0.95066        0.73259
H          5.00568       -0.78199        0.36773
H         -0.03316        3.75353        1.57424
H          0.98523        2.29821        1.40001
H         -0.40212        2.29078        2.51663
