33
Pyrazole_H7_Int2_Sub5.log	Energy: -582654.5960726
C         -0.78900        0.70453       -0.67915
C         -0.99827        1.92285       -0.02311
C         -1.63407        0.79186       -1.82456
N         -1.89899        2.59446       -0.78451
C         -0.39428        2.54356        1.20218
H         -1.77603        0.05198       -2.61252
N         -2.29833        1.93654       -1.87025
H         -2.28599        3.50952       -0.58948
O         -0.95259       -2.13857       -0.02920
C         -2.06964       -2.02707        0.48086
O         -2.62209       -0.88870        0.77387
C         -2.89343       -3.22887        0.79757
H         -2.31223       -4.14142        0.63090
H         -3.23970       -3.17275        1.83914
H         -3.78752       -3.22756        0.15626
H         -2.04417       -0.15333        0.40904
Pd         0.50835       -0.71047       -0.27629
O          2.45234       -1.73000        0.04073
C          2.97330       -0.61073       -0.16492
O          2.21332        0.39209       -0.40748
C          4.45353       -0.39974       -0.14236
H          4.78822       -0.06853       -1.13634
H          4.70042        0.40107        0.56929
H          4.96701       -1.32757        0.13495
H         -1.09816        3.32675        1.54068
C         -0.23834        1.53654        2.33767
H          0.16315        2.02755        3.23689
H         -1.19837        1.06810        2.60293
H          0.46234        0.73693        2.04797
C          0.93992        3.21670        0.86597
H          0.81649        3.96744        0.07097
H          1.35140        3.72277        1.75358
H          1.66435        2.46739        0.51416
