46
Pyrazole_H6_deriv1_Int2_Sub27.log	Energy: -705155.0663112
C         -0.71105       -0.71340        0.12455
C          0.50808       -0.57460        0.79170
N         -0.50643       -1.71762       -0.76068
C          1.36371       -1.55201        0.21145
H          0.72967        0.09098        1.62374
H         -1.21020       -2.10787       -1.37583
N          0.72446       -2.23700       -0.72598
C          2.80532       -1.81151        0.52927
O         -1.64089        1.98836        0.80244
C         -0.68092        2.62724        0.36729
O          0.29122        2.11135       -0.32660
C         -0.55226        4.09047        0.62252
H         -1.45068        4.46912        1.12011
H          0.33444        4.27004        1.24858
H         -0.38709        4.61282       -0.33057
H          0.23381        1.11539       -0.31054
Pd        -2.42734        0.18012        0.19474
O         -4.62701        0.44256       -0.03553
C         -4.62821       -0.74107       -0.43600
O         -3.51199       -1.37444       -0.50401
C         -5.88280       -1.45987       -0.81291
H         -5.71456       -2.07419       -1.70751
H         -6.16264       -2.13744        0.00823
H         -6.69537       -0.74266       -0.97818
H          3.12540       -2.61546       -0.15608
C          3.65320       -0.55997        0.22437
C          3.48572       -0.10864       -1.22805
H          3.27582        0.25657        0.87330
H          2.42024        0.05229       -1.45389
C          2.95475       -2.30758        1.96739
H          2.27412       -3.15066        2.15508
H          3.97787       -2.64945        2.17974
H          2.70765       -1.51202        2.68940
H          3.81198       -0.93178       -1.89038
C          4.28819        1.14761       -1.54241
H          4.15843        1.42631       -2.60089
H          3.88536        1.98952       -0.94973
C          5.76492        0.96046       -1.21661
H          6.32649        1.89009       -1.40533
H          6.18975        0.19751       -1.89403
C          5.95251        0.50745        0.22610
H          5.63499        1.32109        0.90376
H          7.01902        0.32835        0.43928
C          5.13815       -0.74381        0.54165
H          5.52327       -1.59478       -0.05120
H          5.27714       -1.01422        1.59947
