42
Pyrazole_H6_deriv1_Int2_Sub5.log	Energy: -656601.9327998
C          0.23239       -0.42980       -0.46938
C          1.49857       -0.20141        0.09359
N          0.43807       -1.29594       -1.49412
C          2.38390       -1.00685       -0.69713
C          1.69369        0.65560        1.32365
H         -0.27737       -1.71409       -2.07472
N          1.70529       -1.65003       -1.64672
C          3.85359       -1.34847       -0.61864
O         -1.23564        2.05707        0.21156
C         -0.57315        2.76521       -0.55020
O          0.24463        2.29628       -1.44532
C         -0.63959        4.25102       -0.46984
H         -1.56674        4.56188        0.02331
H          0.21860        4.59759        0.12763
H         -0.55073        4.69230       -1.47059
H          0.35349        1.31364       -1.29986
Pd        -1.59591        0.03625        0.04829
O         -3.73635       -0.26574        0.51713
C         -3.52800       -1.47274        0.25894
O         -2.35322       -1.83232       -0.11038
C         -4.59042       -2.51444        0.39442
H         -4.51261       -3.24567       -0.42101
H         -4.43670       -3.05355        1.34182
H         -5.58164       -2.04592        0.40773
H          4.08136       -1.70682       -1.63589
C          4.80025       -0.19244       -0.32323
H          5.84094       -0.50536       -0.49955
H          4.59569        0.67751       -0.96499
H          4.73828        0.13313        0.72567
C          4.09454       -2.52926        0.32531
H          3.46216       -3.38325        0.04297
H          5.14742       -2.85157        0.28533
H          3.86155       -2.26845        1.36871
H          0.67062        0.94860        1.61486
C          2.26355       -0.12538        2.50688
H          2.23686        0.48521        3.42326
H          1.68567       -1.04350        2.68810
H          3.31098       -0.41452        2.33472
C          2.46979        1.95632        1.09754
H          2.09681        2.50912        0.22369
H          2.38507        2.60877        1.98140
H          3.53851        1.77260        0.92682
