28
Pyrazole_H7_Int2_Sub24.log	Energy: -580480.9503409
C         -0.89878        0.02070        0.16396
C         -1.75797       -0.75517       -0.61494
C         -1.78541        0.72838        1.02226
N         -3.00491       -0.45665       -0.19084
H         -1.58327       -1.48562       -1.40060
H         -1.54050        1.44154        1.80940
N         -3.05994        0.42964        0.78120
O         -4.13612       -0.94839       -0.73239
O          1.22869        1.96607        0.44174
C          0.66995        2.82949       -0.23815
O         -0.29589        2.57739       -1.07268
C          1.06245        4.26360       -0.14428
H          1.95934        4.37051        0.47408
H          1.23410        4.66481       -1.15289
H          0.22952        4.83248        0.29561
H         -0.57703        1.63059       -0.94697
Pd         1.05464       -0.06918        0.16454
O          3.09200       -0.91869        0.07719
C          2.52624       -2.02188       -0.10219
O          1.24753       -2.06092       -0.15722
C          3.29434       -3.29904       -0.22230
H          3.29405       -3.80389        0.75604
H          2.81115       -3.96868       -0.94573
H          4.33152       -3.09117       -0.51162
C         -4.82312       -1.78825        0.18154
H         -4.20488       -2.65908        0.45703
H         -5.10655       -1.22824        1.08522
H         -5.72286       -2.12249       -0.34950
