27
Pyrazole_H7_Int2_Sub9.log	Energy: -720098.3119844
C         -0.37212       -0.96613       -0.57298
C         -0.28719       -1.91797       -1.58262
C         -1.64847       -1.24361       -0.00089
N         -1.43654       -2.63550       -1.54935
H          0.51328       -2.14195       -2.28470
C         -2.32665       -0.53339        1.12683
N         -2.27261       -2.24718       -0.60228
H         -1.69608       -3.41159       -2.14573
O         -0.18289        1.87022        0.09116
C         -1.02529        2.21086       -0.74132
O         -1.33041        1.49845       -1.78809
C         -1.79201        3.47547       -0.58736
H         -1.24404        4.17291        0.05508
H         -2.01288        3.91783       -1.56661
H         -2.74695        3.21718       -0.10320
H         -0.89447        0.61322       -1.69774
Pd         1.06857        0.24613       -0.02172
O          3.06892        0.94399        0.53386
C          3.44462       -0.23619        0.33824
O          2.58363       -1.09656       -0.05957
C          4.85107       -0.67461        0.58518
H          4.90588       -1.13262        1.58481
H          5.14921       -1.43379       -0.14955
H          5.52716        0.18835        0.55563
F         -1.46147       -0.19153        2.08293
F         -3.28603       -1.26402        1.67779
F         -2.90460        0.61684        0.70629
