33
Pyrazole_H6_deriv1_Int2_Sub30.log	Energy: -582656.0418626
C          0.50914       -0.52776       -0.03775
C          1.77570       -0.13930        0.40478
N          0.73070       -1.63566       -0.78555
C          2.67158       -1.09883       -0.14326
H          2.01318        0.67879        1.08211
H          0.00939       -2.20355       -1.21424
N          2.01235       -1.99967       -0.85870
C          4.16282       -1.16734        0.00300
O         -0.75515        2.06897        0.51889
C          0.00897        2.78131       -0.13503
O          0.91456        2.32842       -0.95188
C         -0.04270        4.26708       -0.02634
H         -0.89171        4.57228        0.59346
H          0.89887        4.62876        0.41309
H         -0.11974        4.70345       -1.03236
H          1.00821        1.34206       -0.84816
Pd        -1.30641        0.11015        0.19523
O         -3.53062        0.00511        0.26590
C         -3.38622       -1.20271       -0.01920
O         -2.19807       -1.66162       -0.19146
C         -4.54107       -2.14306       -0.14009
H         -4.39107       -2.82146       -0.99057
H         -4.59322       -2.75837        0.77116
H         -5.47690       -1.58218       -0.24771
H          4.46888       -2.07645       -0.54022
C          4.83814        0.03753       -0.65132
H          5.93479       -0.03861       -0.58300
H          4.56569        0.11671       -1.71436
H          4.53703        0.97577       -0.15686
C          4.57592       -1.31356        1.46644
H          4.10570       -2.19515        1.92650
H          5.66836       -1.41899        1.55800
H          4.27668       -0.42981        2.05337
