33
Pyrazole_H6_deriv1_Int2_Sub10.log	Energy: -870946.1300853
C          0.49013       -0.34406       -0.18434
C          1.50696       -0.85848        0.62177
N          1.15061        0.03351       -1.31454
C          2.70556       -0.74360       -0.13633
H          1.37639       -1.29935        1.60820
Cl         0.43525        0.78210       -2.65103
N          2.46200       -0.19257       -1.31885
C          4.09638       -1.15517        0.24645
O         -1.05438        2.00075        0.31637
C         -0.09865        2.65294        0.74061
O          1.02549        2.14459        1.14983
C         -0.16161        4.14138        0.79804
H         -1.19543        4.48055        0.67619
H          0.26619        4.50168        1.74291
H          0.45575        4.54442       -0.01981
H          1.05672        1.16050        0.99664
Pd        -1.39626       -0.01973        0.15839
O         -3.52793       -0.31351        0.49933
C         -3.31141       -1.53528        0.30688
O         -2.11293       -1.91180        0.06623
C         -4.40626       -2.55032        0.32118
H         -4.68812       -2.77951       -0.71800
H         -4.05455       -3.48100        0.78541
H         -5.28266       -2.15470        0.84828
H          4.73631       -0.85360       -0.59871
C          4.56456       -0.41712        1.49960
H          5.60573       -0.67978        1.74330
H          4.50850        0.67355        1.36502
H          3.94298       -0.68156        2.37057
C          4.19763       -2.67048        0.41535
H          3.88415       -3.19403       -0.49970
H          5.23174       -2.97018        0.64654
H          3.55504       -3.02069        1.23926
