33
Pyrazole_H6_deriv1_Int2_Sub25.log	Energy: -769405.7396009
C         -0.14292       -0.58343        0.03322
C          1.12163       -0.22702        0.50423
N          0.06379       -1.71051       -0.69236
C          1.99657       -1.21568       -0.01578
H          1.37743        0.60250        1.15865
H         -0.66377       -2.25966       -1.13570
N          1.33257       -2.11031       -0.73434
C          3.47409       -1.36083        0.18254
O         -1.32400        2.04731        0.57063
C         -0.53403        2.74156       -0.07267
O          0.33494        2.26912       -0.91809
C         -0.50482        4.22267        0.08494
H         -1.34540        4.55495        0.70226
H          0.44776        4.51209        0.55379
H         -0.53586        4.69718       -0.90590
H          0.38244        1.28132       -0.84246
Pd        -1.94173        0.11872        0.19986
O         -4.16396        0.09854        0.18319
C         -4.05701       -1.11262       -0.10461
O         -2.88076       -1.61591       -0.23322
C         -5.24174       -2.00558       -0.27749
H         -5.08440       -2.68550       -1.12540
H         -5.35504       -2.62221        0.62730
H         -6.14949       -1.40740       -0.41921
H          3.80747       -2.14547       -0.51406
C          4.20674       -0.10420       -0.24513
F          3.89221        0.25754       -1.49041
F          5.53290       -0.27715       -0.20223
F          3.92506        0.93871        0.55340
C          3.84539       -1.74802        1.61207
H          3.35319       -2.69357        1.87583
H          4.93209       -1.87593        1.71827
H          3.51408       -0.97927        2.32517
