30
Pyrazole_H6_deriv1_Int2_Sub26.log	Energy: -846329.6601029
C          0.27556       -0.55738        0.00410
C          1.54023       -0.18861        0.46195
N          0.48765       -1.67405       -0.73863
C          2.42043       -1.16025       -0.08076
H          1.79664        0.64014        1.11794
H         -0.23830       -2.22769       -1.17890
N          1.76146       -2.05420       -0.80403
C          3.89565       -1.27894        0.09146
O         -0.94308        2.05723        0.55441
C         -0.16754        2.76568       -0.09097
O          0.72077        2.30972       -0.92480
C         -0.18268        4.24904        0.04897
H         -1.02252        4.56203        0.67724
H          0.76887        4.57668        0.49373
H         -0.24959        4.70845       -0.94742
H          0.79567        1.32348       -0.84329
Pd        -1.53077        0.11664        0.19908
O         -3.75306        0.06103        0.21692
C         -3.63098       -1.14839       -0.07206
O         -2.44899       -1.63299       -0.21846
C         -4.80369       -2.06048       -0.22643
H         -4.64900       -2.73732       -1.07730
H         -4.89220       -2.67943        0.67954
H         -5.72326       -1.47716       -0.35301
H          4.24335       -2.08789       -0.56466
Cl         4.69757        0.22831       -0.52922
C          4.33125       -1.51578        1.52284
H          3.88215       -2.45086        1.89140
H          5.42536       -1.59560        1.58960
H          4.00131       -0.69310        2.17387
