38
Pyrazole_H6_deriv1_Int2_Sub7.log	Energy: -642011.3394035
C          0.47183       -0.08197       -0.57197
C          1.55382       -0.59457        0.16015
N          1.02709        0.32396       -1.75821
C          2.69283       -0.42016       -0.69045
N          1.56345       -1.19040        1.41376
H          0.52600        0.69305       -2.55393
N          2.33789        0.13542       -1.84073
C          4.12512       -0.78194       -0.42431
O         -1.25313        2.17023       -0.13324
C         -0.34304        2.85830        0.33938
O          0.80844        2.39407        0.71258
C         -0.51309        4.33034        0.51110
H         -1.54151        4.62395        0.27771
H         -0.25304        4.61139        1.54133
H          0.19060        4.85112       -0.15542
H          0.88007        1.42148        0.45314
Pd        -1.44333        0.12342       -0.22623
O         -3.57018       -0.33208        0.10338
C         -3.24869       -1.53621       -0.03167
O         -2.02042       -1.82503       -0.25065
C         -4.24984       -2.64337        0.03807
H         -4.38226       -3.06977       -0.96766
H         -3.87400       -3.44580        0.68766
H         -5.21123       -2.26531        0.40479
H          4.65813       -0.53180       -1.35611
C          4.73335        0.06457        0.69529
H          5.80740       -0.15027        0.80991
H          4.61827        1.13882        0.48753
H          4.26246       -0.13795        1.67215
C          4.28759       -2.27940       -0.16191
H          3.93373       -2.86679       -1.02184
H          5.34348       -2.53529        0.01859
H          3.70021       -2.59381        0.71437
H          2.36706       -0.93367        1.97290
C          0.34443       -1.32893        2.16169
H          0.55320       -1.86565        3.09832
H         -0.38646       -1.91767        1.58776
H         -0.14158       -0.36357        2.42250
