27
Pyrazole_H7_Int2_Sub22.log	Energy: -533347.7262342
C          1.01950       -0.50933       -0.22126
C          1.52893       -1.57278        0.51909
C          2.09094       -0.19547       -1.10407
N          2.78476       -1.80947        0.06983
H          1.07394       -2.17893        1.30010
H          2.12703        0.57241       -1.87752
N          3.14158       -0.98188       -0.91026
C          3.72357       -2.78795        0.55108
O         -0.18119        2.12013       -0.39428
C          0.69680        2.66961        0.27422
O          1.51456        2.02901        1.05739
C          0.89758        4.14536        0.22476
H          0.09235        4.61756       -0.34700
H          0.93651        4.54620        1.24727
H          1.86951        4.35670       -0.24596
H          1.39517        1.05108        0.89839
Pd        -0.81298        0.17099       -0.16314
O         -3.02221        0.18030       -0.02697
C         -2.92630       -1.06056        0.11369
O         -1.76357       -1.59615        0.12960
C         -4.12877       -1.94205        0.23191
H         -4.34016       -2.38398       -0.75399
H         -3.93220       -2.76419        0.93246
H         -4.99892       -1.35514        0.54976
H          4.12918       -3.35738       -0.29632
H          3.20948       -3.47420        1.23556
H          4.55669       -2.30326        1.08231
