27
Pyrazole_H7_Int2_Sub17.log	Energy: -720089.5988900
C         -0.44508        0.13032        0.33575
C         -1.41700       -0.60405       -0.32097
C         -1.19999        0.95966        1.22289
N         -2.61851       -0.18926        0.18175
H         -1.34675       -1.38995       -1.06830
H         -0.82791        1.69178        1.94023
N         -2.49916        0.75875        1.11680
C         -3.92413       -0.62884       -0.18397
O          1.81794        1.92323        0.36605
C          1.28318        2.79143       -0.32650
O          0.28041        2.55788       -1.12451
C          1.74601        4.20610       -0.29524
H          2.66084        4.29125        0.29968
H          1.91396        4.56102       -1.32171
H          0.95157        4.83095        0.13992
H         -0.03217        1.62961       -0.96832
Pd         1.49007       -0.10289        0.17552
O          3.44341       -1.08688       -0.04553
C          2.79673       -2.15676       -0.13604
O          1.51748       -2.10809       -0.08612
C          3.46728       -3.48501       -0.26810
H          3.51032       -3.95788        0.72515
H          2.88539       -4.14222       -0.92740
H          4.48974       -3.35722       -0.64329
F         -3.81131       -1.58286       -1.09969
F         -4.63945        0.36336       -0.69155
F         -4.57593       -1.11127        0.85952
