27
Pyrazole_H6_Int2_Sub6.log	Energy: -533354.8406674
C         -0.66965        1.14148       -0.01013
C         -1.91365        1.44669        0.55822
N         -0.35332        2.22430       -0.77247
C         -2.21706        2.73366        0.04387
C         -2.71846        0.64408        1.52813
H          0.52376        2.35703       -1.26154
N         -1.26167        3.19204       -0.75077
H         -3.09968        3.34286        0.24265
O         -0.77963       -1.79795        0.29370
C         -1.79346       -1.95042       -0.39159
O         -2.30725       -1.02448       -1.14514
C         -2.53988       -3.23967       -0.38395
H         -1.93272       -4.02594        0.07618
H         -3.46657       -3.10276        0.19458
H         -2.82892       -3.51105       -1.40811
H         -1.84826       -0.15691       -0.96506
Pd         0.62885       -0.30456        0.14138
O          2.62859       -1.26808        0.19499
C          3.08337       -0.11679        0.01912
O          2.26041        0.86232       -0.10056
C          4.54916        0.16813       -0.02721
H          4.76651        0.91986       -0.79758
H          4.85812        0.58632        0.94309
H          5.10948       -0.75588       -0.21249
H         -3.06298        1.27159        2.36388
H         -2.12158       -0.17322        1.95673
H         -3.61845        0.20581        1.06437
