33
Pyrazole_H7_Int2_Sub13.log	Energy: -582654.0132751
C         -0.47016       -0.85650       -0.61770
C         -0.43673       -1.69153       -1.73156
C         -1.71684       -1.18029        0.00558
N         -1.58382       -2.40457       -1.71364
H          0.32053       -1.83130       -2.50029
C         -2.29252       -0.62338        1.27789
N         -2.36964       -2.11301       -0.67993
H         -1.88838       -3.09701       -2.38548
O         -0.20824        1.93640        0.25906
C         -1.13195        2.31964       -0.46189
O         -1.62555        1.61862       -1.43849
C         -1.78683        3.63877       -0.23436
H         -1.13355        4.28712        0.35912
H         -2.04887        4.10547       -1.19249
H         -2.72243        3.46477        0.32032
H         -1.22121        0.70295       -1.40791
Pd         0.99687        0.28336        0.00933
O          3.04627        0.88260        0.59437
C          3.37328       -0.28904        0.29544
O          2.47851       -1.08980       -0.14894
C          4.77010       -0.79389        0.47077
H          4.82557       -1.35698        1.41514
H          5.03278       -1.48076       -0.34444
H          5.47354        0.04608        0.51813
H         -1.64653        0.22024        1.57163
C         -3.71472       -0.10784        1.06802
H         -4.12197        0.32042        1.99729
H         -3.74880        0.66502        0.28413
H         -4.37356       -0.92846        0.74646
C         -2.22943       -1.66660        2.39329
H         -1.19495       -2.00360        2.55733
H         -2.61346       -1.25696        3.34086
H         -2.83336       -2.54715        2.12518
