41
Pyridine_H10_deriv2_Int2_Sub14.log	Energy: -645787.6857592
C          0.14253        0.40654       -0.42523
C          1.16718       -0.37964        0.10913
C          0.53277        1.53577       -1.14838
C          2.51840       -0.04667       -0.04407
H          0.88589       -1.28952        0.63900
N          1.80559        1.87450       -1.31166
H         -0.20792        2.19072       -1.62358
C          2.78605        1.13632       -0.78383
C          3.60038       -0.97088        0.53972
C          4.15290        1.71326       -1.04286
O         -2.41533        1.76105       -0.15177
C         -2.04269        2.59539        0.67296
O         -1.03154        2.40748        1.47650
C         -2.71410        3.91664        0.80955
H         -3.65659        3.91966        0.25271
H         -2.88256        4.14370        1.87094
H         -2.04297        4.69219        0.40940
H         -0.58175        1.56922        1.21044
Pd        -1.71151       -0.18488       -0.22651
O         -3.43637       -1.60022       -0.04016
C         -2.57411       -2.50381       -0.09726
O         -1.33697       -2.18194       -0.19473
C         -2.93797       -3.95487       -0.08535
H         -2.20075       -4.52772        0.49253
H         -3.94676       -4.09027        0.32258
H         -2.91864       -4.33196       -1.11944
C          2.98664       -2.07856        1.40531
H          3.79344       -2.70087        1.82085
H          2.41287       -1.66874        2.25063
H          2.32495       -2.74151        0.82890
C          4.35567       -1.66612       -0.60489
H          4.85875       -0.95894       -1.27749
H          5.12419       -2.34216       -0.19710
H          3.66182       -2.26611       -1.21279
C          4.57146       -0.19515        1.44264
H          5.27563       -0.89500        1.91933
H          5.16712        0.54668        0.89883
H          4.02469        0.32838        2.24237
H          4.07515        2.38497       -1.90665
H          4.92625        0.96164       -1.23866
H          4.48858        2.31848       -0.18504
