29
Pyridine_H10_Int2_Sub6.log	Energy: -547190.8867196
C          0.88926       -0.77845       -0.24736
C          1.14245       -1.77430        0.71939
C          1.77491       -0.66869       -1.33101
C          2.27176       -2.57758        0.52248
C          0.24501       -1.97427        1.90340
N          2.84259       -1.44421       -1.51115
H          1.60490        0.09927       -2.09619
C          3.07793       -2.37926       -0.59603
H          2.51778       -3.36323        1.24224
H          3.95975       -3.01096       -0.75574
O          0.37153        2.10610       -0.25402
C          1.41073        2.40248        0.33478
O          2.14248        1.54380        0.98838
C          1.93393        3.79706        0.33663
H          1.19349        4.47848       -0.09423
H          2.19109        4.09544        1.36239
H          2.86152        3.82734       -0.25500
H          1.78832        0.63583        0.81642
Pd        -0.71502        0.35056       -0.18212
O         -2.87163        0.90620       -0.13674
C         -3.09468       -0.32445       -0.10998
O         -2.10363       -1.13746       -0.10389
C         -4.48111       -0.88527       -0.10959
H         -4.55340       -1.71331        0.60846
H         -5.20916       -0.10024        0.12621
H         -4.69929       -1.29344       -1.10818
H         -0.77959       -2.19184        1.56631
H          0.18596       -1.05865        2.51351
H          0.60002       -2.79379        2.54317
