37
Pyridazine_H7_deriv1_Int2_Sub21.log	Energy: -631184.5542719
C          0.16532       -0.23510       -0.73082
C          0.52040       -1.34069       -1.51956
C          1.20617        0.61637       -0.38395
N          1.76985       -1.59014       -1.90453
H         -0.22384       -2.06012       -1.87482
C          2.50205        0.29035       -0.81032
H          1.02745        1.52502        0.19718
N          2.74789       -0.79609       -1.54712
C          3.70089        1.11129       -0.43816
O         -2.13357       -1.84920       -0.08646
C         -1.57662       -2.62785        0.68766
O         -0.58297       -2.27516        1.45911
C         -1.97615       -4.05603        0.79222
H         -2.93614       -4.21591        0.29098
H         -1.19948       -4.66740        0.30663
H         -2.02385       -4.35971        1.84642
H         -0.34154       -1.34698        1.23792
Pd        -1.66041        0.16703       -0.17256
O         -3.44164        1.37760        0.38900
C         -2.70155        2.37288        0.22412
O         -1.47668        2.18599       -0.10802
C         -3.20094        3.77361        0.37180
H         -2.43576        4.40237        0.84587
H         -3.39753        4.18511       -0.63014
H         -4.13234        3.78573        0.95020
C          4.64069        0.38302        0.53304
H          3.37600        2.06911        0.00128
H          4.25604        1.34291       -1.36114
H          4.90453       -0.57170        0.04492
C          5.91570        1.18718        0.74830
H          6.61655        0.65350        1.40874
H          6.43311        1.38354       -0.20348
H          5.69479        2.16140        1.21620
C          3.95261        0.06789        1.85568
H          3.05534       -0.55362        1.71049
H          4.62790       -0.47741        2.53278
H          3.64114        0.99312        2.37010
