26
Pyridine_H10_deriv1_Int2_Sub18.log	Energy: -1099184.8283220
C         -0.56217       -0.36745       -0.12741
C         -1.05635       -1.30914       -1.04483
C         -1.52709        0.16700        0.74353
C         -2.40827       -1.63788       -1.08224
H         -0.36305       -1.80321       -1.73080
N         -2.80946       -0.13291        0.72768
Cl        -1.04355        1.32076        1.95804
C         -3.24058       -1.00356       -0.15968
H         -2.80932       -2.36442       -1.78926
Cl        -4.93488       -1.36707       -0.15620
O          1.27545        2.00580       -0.11418
C          0.48764        2.72168       -0.72840
O         -0.49214        2.25790       -1.45543
C          0.57177        4.20529       -0.66239
H          1.57394        4.51122       -0.34418
H          0.30139        4.65321       -1.62680
H         -0.16140        4.54420        0.08686
H         -0.53730        1.28113       -1.33263
Pd         1.37582       -0.05268       -0.03581
O          3.51530       -0.53992        0.08909
C          3.15537       -1.74020        0.09532
O          1.90452       -2.00686        0.00862
C          4.12865       -2.86465        0.23051
H          3.81714       -3.71451       -0.39084
H          5.13651       -2.52814       -0.04033
H          4.13506       -3.20024        1.27897
