38
Pyridine_H10_deriv1_Int2_Sub20.log	Energy: -909464.6467889
C         -0.13832       -0.23727       -0.12028
C         -0.75225       -1.09286       -1.04808
C         -1.02750        0.38650        0.76839
C         -2.13411       -1.25180       -1.06519
H         -0.13123       -1.64998       -1.75489
N         -2.33289        0.24057        0.76622
Cl        -0.39268        1.46159        1.99630
C         -2.91259       -0.55818       -0.12963
H         -2.59862       -1.91822       -1.79441
C         -4.43175       -0.69414       -0.09378
O          1.93913        1.91881       -0.14344
C          1.21257        2.71707       -0.73018
O          0.15970        2.36777       -1.41768
C          1.46541        4.18252       -0.67431
H          2.50746        4.37394       -0.39731
H          1.20930        4.65798       -1.62942
H          0.80546        4.60170        0.10183
H          0.00353        1.40256       -1.28429
Pd         1.82120       -0.14022       -0.04775
O          3.90299       -0.86629        0.06033
C          3.40765       -2.01669        0.07826
O          2.13471       -2.14307        0.00668
C          4.24939       -3.24438        0.21116
H          3.83739       -4.05668       -0.40191
H          5.28606       -3.02576       -0.07165
H          4.22882       -3.57345        1.26149
C         -5.02080        0.17669        1.01380
H         -6.11637        0.06880        1.02822
H         -4.62491       -0.10860        1.99818
H         -4.77307        1.23656        0.86216
C         -5.00776       -0.25215       -1.44642
H         -4.63404       -0.87155       -2.27596
H         -6.10596       -0.33515       -1.43655
H         -4.74799        0.79576       -1.66173
C         -4.79636       -2.16240        0.16809
H         -5.89072       -2.28031        0.20767
H         -4.41680       -2.82819       -0.62186
H         -4.38137       -2.50541        1.12806
