31
Pyridazine_H7_deriv1_Int2_Sub14.log	Energy: -581887.1133211
C         -0.89177       -0.26312       -0.39750
C         -1.62319        0.31740       -1.44930
C         -1.56723       -1.19656        0.39107
N         -2.88889        0.02524       -1.71737
H         -1.16733        1.05749       -2.11552
C         -2.91858       -1.45110        0.04285
C         -0.94211       -1.91308        1.54843
N         -3.52848       -0.84874       -0.97523
C         -3.74741       -2.43111        0.81231
O          0.57934        2.22971       -0.17230
C         -0.27441        2.81948        0.48919
O         -1.18168        2.20937        1.20216
C         -0.35483        4.30527        0.51574
H          0.54717        4.73938        0.07272
H         -1.23915        4.61660       -0.06158
H         -0.49637        4.65518        1.54720
H         -1.12883        1.24371        1.01494
Pd         0.99878        0.20409       -0.17278
O          3.19954       -0.02249       -0.00901
C          2.98772       -1.25518       -0.06221
O          1.77892       -1.67376       -0.14453
C          4.09705       -2.25680       -0.06015
H          3.82037       -3.12829        0.54790
H          4.25822       -2.60724       -1.09115
H          5.02201       -1.79848        0.30942
H         -3.82667       -2.14894        1.87434
H         -3.30697       -3.44041        0.78032
H         -4.75247       -2.46555        0.37457
H         -0.95143       -3.00151        1.38036
H         -1.50308       -1.73022        2.47912
H          0.10188       -1.60887        1.69004
