44
Pyridazine_H7_deriv1_Int2_Sub19.log	Energy: -704384.3316651
C         -0.65639       -0.33583       -0.96189
C         -0.55617       -1.50236       -1.73955
C          0.48315        0.45322       -0.91365
N          0.55303       -1.85768       -2.37955
H         -1.40376       -2.18232       -1.87136
C          1.62906        0.01273       -1.59658
H          0.49262        1.40259       -0.37054
N          1.63594       -1.12091       -2.30091
C          2.91771        0.77435       -1.52676
O         -2.83997       -1.74331        0.29266
C         -2.16556       -2.52617        0.96192
O         -0.99064       -2.22119        1.44503
C         -2.62603       -3.90833        1.25877
H         -3.68806       -4.01185        1.01436
H         -2.03575       -4.60760        0.64615
H         -2.43621       -4.15213        2.31254
H         -0.74391       -1.33050        1.10695
Pd        -2.27970        0.22500       -0.03628
O         -3.80997        1.59146        0.82930
C         -3.06960        2.51935        0.43428
O         -1.96700        2.22566       -0.15202
C         -3.43754        3.95893        0.59432
H         -2.54758        4.55464        0.83646
H         -3.83704        4.32889       -0.36245
H         -4.20685        4.07060        1.36756
C          3.61077        0.66127       -0.16427
H          2.72750        1.83862       -1.74468
H          3.57919        0.38328       -2.31494
H          2.91090        1.04565        0.60461
C          4.86788        1.52910       -0.11304
H          4.60886        2.57800       -0.33535
H          5.55332        1.20247       -0.91699
C          5.58028        1.43006        1.23127
H          6.49784        2.04049        1.22137
H          4.93171        1.85923        2.01670
C          5.90467       -0.01694        1.58607
H          6.38148       -0.07266        2.57821
H          6.64301       -0.40982        0.86362
C          4.65394       -0.88789        1.54361
H          3.96189       -0.56627        2.34360
H          4.90807       -1.93824        1.75977
C          3.94507       -0.78582        0.19793
H          4.58925       -1.20751       -0.59523
H          3.03037       -1.40022        0.19728
