30
Pyridine_H10_deriv1_Int2_Sub24.log	Energy: -882686.4510194
C         -0.52446       -0.40792       -0.23184
C         -0.93063       -1.33456       -1.21536
C         -1.54940        0.02054        0.61875
C         -2.25064       -1.73818       -1.32439
H         -0.18204       -1.75061       -1.89489
N         -2.81358       -0.35121        0.54082
Cl        -1.18610        1.14762        1.90413
C         -3.16792       -1.20544       -0.40421
H         -2.58747       -2.45121       -2.07750
O         -4.44278       -1.58731       -0.49553
O          1.19787        2.04393       -0.05602
C          0.39225        2.73813       -0.67230
O         -0.56277        2.25079       -1.41437
C          0.42834        4.22405       -0.59190
H          1.41058        4.55828       -0.24170
H          0.17517        4.67010       -1.56204
H         -0.33846        4.53654        0.13456
H         -0.58241        1.26886       -1.29162
Pd         1.39163       -0.00989       -0.02199
O          3.54826       -0.40851        0.20816
C          3.23969       -1.62187        0.16216
O          2.00958       -1.94094        0.00100
C          4.25398       -2.70806        0.31953
H          4.01516       -3.55059       -0.34271
H          5.25927       -2.32059        0.11528
H          4.21807       -3.07605        1.35645
C         -5.35088       -1.05978        0.44779
H         -5.06106       -1.32934        1.47492
H         -5.39850        0.03828        0.38560
H         -6.32770       -1.49488        0.20406
