31
Pyridine_H10_deriv1_Int2_Sub23.log	Energy: -870231.3488772
C         -0.52084       -0.37722       -0.25155
C         -0.94020       -1.29646       -1.23673
C         -1.54449        0.04753        0.60427
C         -2.26232       -1.68545       -1.34621
H         -0.19826       -1.71740       -1.92068
N         -2.80873       -0.30869        0.53587
Cl        -1.16090        1.16226        1.89973
C         -3.19217       -1.15586       -0.42270
H         -2.58131       -2.39109       -2.11666
N         -4.51291       -1.47691       -0.47875
O          1.24741        2.03734       -0.05558
C          0.44697        2.74364       -0.66556
O         -0.52579        2.27252       -1.39279
C          0.51455        4.22949       -0.59247
H          1.50556        4.54531       -0.24997
H          0.26517        4.67559       -1.56366
H         -0.24177        4.56174        0.13609
H         -0.56719        1.28913       -1.25722
Pd         1.40231       -0.02019       -0.02290
O          3.55431       -0.46927        0.22359
C          3.21653       -1.67412        0.17055
O          1.98174       -1.96590       -0.00209
C          4.20475       -2.78454        0.33339
H          3.95201       -3.61996       -0.33271
H          5.22040       -2.42012        0.13797
H          4.15239       -3.15388        1.36913
H         -4.77519       -2.22526       -1.10265
C         -5.45341       -1.05746        0.52412
H         -6.47298       -1.25758        0.16784
H         -5.34848        0.02020        0.71196
H         -5.30741       -1.57201        1.49118
