40
Pyridazine_H7_deriv1_Int2_Sub12.log	Energy: -655825.1281166
C          0.65044       -0.20017       -0.67304
C          0.87447       -0.85006       -1.90017
C          1.75084        0.40261       -0.03815
N          2.04421       -0.88217       -2.51786
H          0.06458       -1.38119       -2.41190
C          2.94202        0.41679       -0.82914
C          1.66401        1.06824        1.35095
N          3.04392       -0.21585       -2.00141
C          4.20893        1.15951       -0.50312
O         -1.45455       -2.13760        0.14853
C         -0.66722       -2.98998        0.55314
O          0.61076       -2.77963        0.71875
C         -1.11472       -4.37037        0.88948
H         -2.20429       -4.44236        0.81423
H         -0.63867       -5.07951        0.19583
H         -0.77662       -4.62971        1.90274
H          0.83398       -1.87457        0.39489
Pd        -1.25755       -0.10336       -0.20845
O         -3.28524        0.75818       -0.00784
C         -2.76191        1.85987       -0.29318
O         -1.50098        1.90797       -0.51318
C         -3.55767        3.12125       -0.39237
H         -3.10495        3.89393        0.24508
H         -3.52266        3.49013       -1.42807
H         -4.59764        2.94172       -0.09634
H          4.82714        0.62021        0.22898
H          4.02306        2.16889       -0.11448
H          4.78249        1.23047       -1.43537
C          0.53521        0.48309        2.21056
H          0.55093        0.96750        3.19830
H         -0.46308        0.65841        1.78238
H          0.66205       -0.59863        2.37450
C          2.94222        0.86711        2.18444
H          3.78186        1.48761        1.85825
H          2.73203        1.14108        3.22890
H          3.26635       -0.18573        2.17787
C          1.38548        2.56608        1.14677
H          1.34022        3.07664        2.12231
H          2.17382        3.04919        0.55100
H          0.42723        2.71144        0.62743
