40
Pyridazine_H7_deriv1_Int2_Sub20.log	Energy: -655834.7671076
C         -0.03392       -0.31047       -0.78089
C          0.26546       -1.46105       -1.52795
C          1.03743        0.53130       -0.51769
N          1.49101       -1.75356       -1.95438
H         -0.50763       -2.17955       -1.81773
C          2.31094        0.15573       -0.97521
H          0.89862        1.47350        0.01885
N          2.50077       -0.96545       -1.67684
C          3.52845        0.98024       -0.68644
O         -2.35639       -1.82557        0.00853
C         -1.79806       -2.58512        0.80045
O         -0.77077       -2.22791        1.52430
C         -2.23493       -3.99444        0.98257
H         -3.21348       -4.14823        0.51656
H         -1.49076       -4.65061        0.50465
H         -2.26039       -4.24776        2.05077
H         -0.51134       -1.31763        1.25386
Pd        -1.82689        0.16972       -0.17906
O         -3.55034        1.45951        0.39076
C         -2.78612        2.42266        0.15942
O         -1.57984        2.18281       -0.20546
C         -3.23648        3.84374        0.26434
H         -2.43565        4.46676        0.68395
H         -3.45670        4.21912       -0.74682
H         -4.14547        3.91004        0.87389
C          4.29350        0.60028        0.60583
H          3.23676        2.04110       -0.61916
H          4.21392        0.87500       -1.54113
C          4.82716       -0.82955        0.51094
H          5.39300       -1.08797        1.42031
H          4.01473       -1.56087        0.39122
H          5.49669       -0.94680       -0.35476
C          5.46679        1.57205        0.74665
H          5.11616        2.61313        0.83241
H          6.06140        1.34161        1.64474
H          6.13695        1.51225       -0.12533
C          3.38444        0.72830        1.82944
H          3.94908        0.52049        2.75190
H          2.96366        1.74341        1.91576
H          2.54569        0.01602        1.78784
