37
Pyridazine_H7_Int2_Sub20.log	Energy: -631183.2621609
C          0.29467       -0.41314       -0.46303
C          0.62498       -1.57556       -1.17263
C          1.36478        0.31561        0.04367
N          1.88004       -1.98712       -1.34382
H         -0.13566       -2.20781       -1.64052
C          2.66243       -0.17276       -0.16470
H          1.19182        1.25351        0.57308
N          2.87556       -1.30489       -0.84212
C          3.92158        0.52176        0.34334
O         -2.30237       -1.67060       -0.28635
C         -2.02681       -2.52317        0.55800
O         -1.15072       -2.32701        1.50683
C         -2.65587       -3.87024        0.55276
H         -3.51609       -3.88120       -0.12417
H         -1.90594       -4.60008        0.20978
H         -2.95008       -4.15418        1.57195
H         -0.73221       -1.44877        1.35676
Pd        -1.52529        0.24983       -0.22288
O         -3.18161        1.71425        0.05462
C         -2.28539        2.58688        0.05567
O         -1.06199        2.21894       -0.06192
C         -2.59023        4.04624        0.15961
H         -1.83736        4.54885        0.78100
H         -2.54207        4.48898       -0.84714
H         -3.59761        4.19585        0.56582
C          3.59924        1.80155        1.11157
H          4.53298        2.26936        1.45847
H          3.07377        2.53737        0.48341
H          2.97968        1.60295        2.00007
C          4.66768       -0.45506        1.26157
H          4.88450       -1.38978        0.72628
H          5.61589       -0.01054        1.60259
H          4.06578       -0.69973        2.15111
C          4.79956        0.85923       -0.86904
H          5.74623        1.31565       -0.53958
H          5.02315       -0.05129       -1.44196
H          4.29110        1.57028       -1.53886
