34
Pyridazine_H7_Int2_Sub21.log	Energy: -606533.9080374
C         -0.50500        0.25934       -0.41051
C         -0.97230        1.34589       -1.16634
C         -1.48490       -0.54057        0.16414
N         -2.26474        1.62556       -1.31932
H         -0.28989        2.02371       -1.68833
C         -2.82799       -0.18820       -0.02945
H         -1.22413       -1.43344        0.73908
N         -3.17733        0.87717       -0.75283
C         -3.96383       -0.99031        0.56162
O          1.94946        1.78496       -0.36736
C          1.60703        2.64271        0.44673
O          0.77975        2.40129        1.42836
C          2.09166        4.04579        0.36451
H          2.92954        4.11397       -0.33668
H          1.26160        4.67752        0.01151
H          2.37895        4.40570        1.36143
H          0.45168        1.47862        1.32922
Pd         1.38040       -0.20070       -0.20132
O          3.18918       -1.46765        0.07930
C          2.39183       -2.42964        0.14285
O          1.13334       -2.19826        0.05134
C          2.85428       -3.84284        0.29195
H          2.17705       -4.39694        0.95517
H          2.82652       -4.32874       -0.69547
H          3.88264       -3.86780        0.67150
H         -3.51318       -1.81933        1.13333
C         -4.78603       -0.12667        1.51608
H         -5.61868       -0.70415        1.94623
H         -4.17025        0.25506        2.34492
H         -5.19953        0.73743        0.97505
C         -4.83060       -1.57873       -0.55015
H         -4.24477       -2.23661       -1.20989
H         -5.66039       -2.16642       -0.12827
H         -5.25014       -0.76846       -1.16490
