41
Pyridine_H10_deriv2_Int2_Sub1.log	Energy: -832521.0583392
C         -0.10201       -0.47866       -0.67274
C         -1.25867        0.00213       -0.02541
C         -0.27053       -1.32880       -1.77134
C         -2.53775       -0.26016       -0.58895
C         -1.04285        0.77836        1.26128
N         -1.45567       -1.67591       -2.25113
H          0.60462       -1.74899       -2.28037
C         -2.52806       -1.13299       -1.69036
C         -3.91014        0.30375       -0.14965
H         -3.47459       -1.41774       -2.15085
O          2.29271       -1.93981       -0.16811
C          1.86176       -2.70746        0.69149
O          1.02026       -2.34902        1.62119
C          2.25939       -4.14089        0.72834
H          3.12214       -4.30826        0.07556
H          2.47697       -4.44852        1.75968
H          1.40894       -4.74401        0.37400
H          0.76771       -1.40816        1.49486
Pd         1.76757        0.05075       -0.33838
O          3.58121        1.27719       -0.18784
C          2.83089        2.26599       -0.37217
O          1.57604        2.06833       -0.51744
C          3.35768        3.66209       -0.44936
H          2.70708        4.34008        0.11933
H          4.38689        3.70213       -0.07372
H          3.34168        3.99046       -1.49970
C         -3.83967        1.79680        0.21237
H         -4.86267        2.18437        0.33159
H         -3.31266        2.00566        1.14653
H         -3.35698        2.37155       -0.59266
C         -4.92569        0.21830       -1.30551
H         -5.20820       -0.81334       -1.55707
H         -5.84834        0.73166       -0.99746
H         -4.55486        0.71088       -2.21717
C         -4.48881       -0.52941        1.00618
H         -5.48374       -0.14439        1.28119
H         -4.60867       -1.57905        0.69627
H         -3.85737       -0.50905        1.90045
F         -0.90715        2.08462        1.07844
F          0.08030        0.36050        1.90282
F         -2.01329        0.59198        2.16159
