47
Pyridine_H10_deriv2_Int2_Sub13.log	Energy: -695086.7848692
C         -0.13265        0.25233       -0.31065
C          0.68466       -0.73272        0.24874
C          0.51418        1.31475       -0.94811
C          2.08374       -0.65834        0.20122
H          0.20001       -1.59119        0.71351
N          1.83481        1.40546       -1.01073
H         -0.05359        2.11954       -1.43130
C          2.62005        0.47490       -0.46280
C          2.92697       -1.77647        0.83692
C          4.09761        0.78811       -0.64734
O         -2.39800        2.06125       -0.10275
C         -1.92804        2.76581        0.79056
O         -1.02471        2.34704        1.63437
C         -2.34547        4.18278        0.97280
H         -3.22343        4.39938        0.35591
H         -2.55220        4.37815        2.03384
H         -1.50993        4.83483        0.67525
H         -0.72526        1.45193        1.34287
Pd        -2.07438        0.02201       -0.26069
O         -4.04459       -1.04010       -0.26745
C         -3.36760       -2.08941       -0.33079
O         -2.08814       -2.00819       -0.33417
C         -3.99976       -3.44138       -0.43332
H         -3.43050       -4.17329        0.15480
H         -5.04395       -3.39884       -0.10137
H         -3.97309       -3.76459       -1.48532
C          2.04341       -2.86154        1.46548
H          2.68592       -3.63980        1.90418
H          1.40983       -2.46390        2.27256
H          1.39227       -3.34809        0.72414
C          3.77951       -2.47738       -0.23414
H          4.48777       -1.80615       -0.73562
H          4.36083       -3.29446        0.22197
H          3.13172       -2.91464       -1.00914
C          3.79870       -1.21311        1.97176
H          4.38225       -2.02340        2.43707
H          4.50654       -0.44431        1.63766
H          3.16499       -0.76342        2.75165
H          4.70073       -0.00374       -0.19050
C          4.44097        0.84081       -2.13490
H          5.50305        1.09148       -2.28244
H          4.24488       -0.12525       -2.62571
H          3.82506        1.60291       -2.63418
C          4.44305        2.10247        0.05080
H          4.24864        2.04488        1.13340
H          5.50505        2.35531       -0.09358
H          3.82785        2.91638       -0.36014
