29
Pyridine_H10_deriv1_Int2_Sub22.log	Energy: -835516.2264652
C         -0.70476       -0.55373       -0.16043
C         -1.04588       -1.52157       -1.11378
C         -1.74444       -0.21612        0.72612
C         -2.33337       -2.05534       -1.15780
H         -0.28701       -1.87018       -1.81968
N         -2.95746       -0.71252        0.70269
Cl        -1.43627        0.96640        1.97997
C         -3.27719       -1.62354       -0.22322
H         -2.59901       -2.80742       -1.90372
C         -4.67889       -2.14881       -0.19318
O          0.70290        2.08919       -0.11253
C         -0.20487        2.66683       -0.70555
O         -1.10722        2.05325       -1.42141
C         -0.36792        4.14383       -0.62519
H          0.57473        4.61006       -0.31975
H         -0.72549        4.54807       -1.58051
H         -1.13406        4.35004        0.13911
H         -0.99170        1.07997       -1.30539
Pd         1.15220        0.07516       -0.04288
O          3.35002       -0.05335        0.10421
C          3.18988       -1.29579        0.09835
O          2.00241       -1.76556       -0.00392
C          4.33414       -2.24693        0.23732
H          4.17329       -3.13088       -0.39372
H          5.27588       -1.74718       -0.01926
H          4.38480       -2.58639        1.28332
H         -4.88535       -2.61800        0.78086
H         -4.85698       -2.88598       -0.98706
H         -5.39658       -1.32206       -0.30649
