26
Pyridine_H10_Int2_Sub2.log	Energy: -810859.6488010
C         -0.91229        0.60260       -0.43118
C         -1.30290        1.60743        0.46346
C         -1.73753        0.43680       -1.55859
C         -2.43570        2.38021        0.20916
Cl        -0.40640        1.88732        1.92033
N         -2.82090        1.16229       -1.82120
H         -1.49045       -0.34118       -2.29152
C         -3.15324        2.11508       -0.95404
H         -2.74378        3.16314        0.90408
H         -4.04642        2.70542       -1.18816
O         -0.18168       -2.24268       -0.17288
C         -1.21497       -2.56908        0.40990
O         -2.02237       -1.71838        0.97944
C         -1.64027       -3.99300        0.50510
H         -0.86079       -4.64663        0.10116
H         -1.85407       -4.24374        1.55363
H         -2.57555       -4.12463       -0.05943
H         -1.70966       -0.80548        0.77366
Pd         0.76167       -0.40799       -0.23707
O          2.91095       -0.82655       -0.12311
C          3.07351        0.41410       -0.21910
O          2.04130        1.16339       -0.31267
C          4.42902        1.04131       -0.24823
H          4.44540        1.92775        0.40022
H          5.19022        0.31642        0.06329
H          4.64416        1.37720       -1.27394
