30
Pyridine_H10_deriv1_Int2_Sub16.log	Energy: -882679.0758818
C         -0.77754       -0.04150        0.25512
C         -1.56706       -1.03357       -0.34551
C         -1.45562        0.86236        1.08730
C         -2.94624       -1.06980       -0.11371
H         -1.08198       -1.78760       -0.96797
N         -2.75274        0.83824        1.31035
Cl        -0.56295        2.12236        1.90912
C         -3.49279       -0.09207        0.73110
O         -3.79644       -1.97020       -0.63328
H         -4.56944       -0.09734        0.93017
O          1.39061        1.85008       -0.57383
C          0.62643        2.57387       -1.20748
O         -0.53949        2.18599       -1.64819
C          0.96510        3.99263       -1.50030
H          2.04750        4.14333       -1.42989
H          0.57984        4.29069       -2.48337
H          0.46703        4.61178       -0.73714
H         -0.72958        1.28858       -1.28814
Pd         1.16396       -0.12487       -0.01903
O          3.18184       -1.02236       -0.10770
C          2.62544       -2.09121        0.23257
O          1.35454       -2.10205        0.39837
C          3.39728       -3.34639        0.48233
H          2.82782       -4.21945        0.13756
H          4.37503       -3.29505       -0.01148
H          3.55225       -3.45402        1.56692
C         -3.27925       -2.98877       -1.44626
H         -2.79907       -2.58310       -2.35425
H         -2.54625       -3.61130       -0.90430
H         -4.12913       -3.61517       -1.74422
