30
Pyridine_H10_Int2_Sub24.log	Energy: -594356.0476979
C          0.81985        0.31320       -0.41350
C          1.77005       -0.55222        0.14638
C          1.27763        1.42102       -1.13682
C          3.12528       -0.26336       -0.02622
H          1.43675       -1.44705        0.67534
N          2.57487        1.69178       -1.30019
H          0.57371        2.11212       -1.61347
C          3.47085        0.88436       -0.76172
O          4.14108       -1.00272        0.45357
H          4.53264        1.11645       -0.90263
O         -1.65054        1.84186       -0.22451
C         -1.25127        2.67331        0.59070
O         -0.28941        2.43811        1.44118
C         -1.82713        4.04349        0.65946
H         -2.75191        4.09324        0.07575
H         -2.00457        4.32512        1.70607
H         -1.09026        4.75058        0.24793
H          0.10676        1.56251        1.21947
Pd        -1.07262       -0.14575       -0.22123
O         -2.89087       -1.42954       -0.01306
C         -2.09436       -2.39305       -0.02368
O         -0.83594       -2.16120       -0.11012
C         -2.56019       -3.81337        0.02994
H         -1.87363       -4.41739        0.63768
H         -3.58149       -3.86344        0.42592
H         -2.55394       -4.22519       -0.99098
C          3.83713       -2.17338        1.16134
H          3.25480       -1.95982        2.07515
H          3.27114       -2.89092        0.54202
H          4.79466       -2.62604        1.44790
