35
Pyridine_H10_deriv1_Int2_Sub13.log	Energy: -884814.2536823
C          0.51913       -0.26003        0.34380
C          1.63908        0.37442       -0.20332
C          0.80293       -1.31015        1.23783
C          2.94075       -0.04009        0.11085
H          1.48532        1.22342       -0.87639
N          2.00796       -1.71847        1.55523
Cl        -0.51927       -2.16233        2.00285
C          3.05319       -1.10515        1.00518
C          4.15965        0.63734       -0.46881
H          4.04326       -1.47698        1.29532
O         -2.08322       -1.34563       -0.64914
C         -1.55491       -2.28818       -1.23360
O         -0.29741       -2.31040       -1.58363
C         -2.31836       -3.52108       -1.56700
H         -3.39247       -3.30773       -1.57382
H         -1.98480       -3.93867       -2.52519
H         -2.10557       -4.26226       -0.78017
H          0.14914       -1.51642       -1.20649
Pd        -1.26349        0.45483       -0.05757
O         -2.86364        1.96360       -0.26981
C         -2.01179        2.79343        0.12294
O         -0.82330        2.38731        0.37686
C         -2.34298        4.23534        0.33467
H         -1.49711        4.86831        0.03584
H         -3.24920        4.50207       -0.22218
H         -2.52313        4.40124        1.40795
H          5.03880        0.10006       -0.07252
C          4.19400        0.52565       -1.99248
H          5.11649        0.97104       -2.39592
H          4.15006       -0.52439       -2.31847
H          3.34330        1.05593       -2.44990
C          4.25591        2.09225       -0.00979
H          4.26451        2.16473        1.08777
H          5.17469        2.56259       -0.39318
H          3.40026        2.68219       -0.37528
