50
Pyridine_H10_deriv2_Int2_Sub12.log	Energy: -719721.5485724
C         -0.29973        0.27587       -0.32110
C          0.51225       -0.72924        0.20296
C          0.36944        1.33823       -0.92188
C          1.91658       -0.70418        0.17581
H          0.00362       -1.58877        0.63323
N          1.68993        1.39740       -0.95210
H         -0.16787        2.16897       -1.39679
C          2.49287        0.46080       -0.43923
C          2.61154       -1.97164        0.73881
C          3.97724        0.92119       -0.54201
O         -2.54729        2.09977       -0.10488
C         -2.07787        2.79415        0.79647
O         -1.19035        2.35914        1.64908
C         -2.47635        4.21645        0.97915
H         -3.34741        4.44658        0.35738
H         -2.68617        4.41330        2.03927
H         -1.62999        4.85691        0.68692
H         -0.90166        1.46065        1.35845
Pd        -2.24146        0.05785       -0.26741
O         -4.21971       -0.99501       -0.27069
C         -3.54838       -2.04746       -0.33663
O         -2.26832       -1.97287       -0.34442
C         -4.18717       -3.39659       -0.43626
H         -3.62711       -4.12737        0.16216
H         -5.23392       -3.34642       -0.11371
H         -4.15200       -3.72761       -1.48554
C          1.62432       -2.88136        1.49457
H          2.18432       -3.73195        1.91081
H          1.13886       -2.36095        2.33426
H          0.84250       -3.29995        0.84543
C          3.13446       -2.82026       -0.43382
H          3.83708       -2.28351       -1.07719
H          3.63900       -3.72353       -0.05418
H          2.29100       -3.14312       -1.06278
C          3.70737       -1.66571        1.76920
H          4.11222       -2.61035        2.16419
H          4.54979       -1.09369        1.37485
H          3.28791       -1.10316        2.61781
C          4.99425       -0.13495       -0.99067
H          5.97819        0.34697       -1.09754
H          5.12631       -0.97416       -0.30292
H          4.72241       -0.54144       -1.97696
C          4.09292        2.04432       -1.58821
H          3.49288        2.92029       -1.32018
H          5.14951        2.34522       -1.66865
H          3.75146        1.70539       -2.57708
C          4.37280        1.54402        0.80910
H          5.39907        1.94206        0.75630
H          3.69746        2.38103        1.04315
H          4.32608        0.83577        1.64458
