38
Pyridine_H10_Int2_Sub20.log	Energy: -621139.1932383
C         -0.27346       -0.44572       -0.49203
C         -1.36419        0.24638        0.05001
C         -0.54553       -1.57379       -1.27533
C         -2.66828       -0.20181       -0.17496
H         -1.17675        1.15220        0.62949
N         -1.78166       -2.01438       -1.50644
H          0.26711       -2.14238       -1.74306
C         -2.79802       -1.35260       -0.96968
C         -3.90630        0.49963        0.38038
H         -3.79392       -1.75672       -1.18769
O          2.36623       -1.63024       -0.19386
C          2.03572       -2.52081        0.58896
O          1.00352       -2.43019        1.38282
C          2.78590       -3.80264        0.68093
H          3.73504       -3.72318        0.14133
H          2.95180       -4.06573        1.73434
H          2.17030       -4.59930        0.23543
H          0.50852       -1.60955        1.14725
Pd         1.52807        0.26293       -0.20885
O          3.14244        1.78047        0.08937
C          2.22242        2.62610        0.04279
O          1.01361        2.22549       -0.10586
C          2.48583        4.09624        0.12408
H          1.69167        4.59480        0.69526
H          3.46835        4.28170        0.57425
H          2.47736        4.51277       -0.89492
C         -3.53635        1.72636        1.21444
H         -4.45072        2.20535        1.59636
H         -2.91444        1.45791        2.08211
H         -2.99040        2.47511        0.62079
C         -4.79224        0.95336       -0.78928
H         -5.12196        0.10419       -1.40585
H         -5.69259        1.46418       -0.41223
H         -4.24952        1.65287       -1.44322
C         -4.68572       -0.48027        1.26952
H         -5.58556        0.00613        1.67862
H         -5.01119       -1.37021        0.71081
H         -4.06761       -0.82099        2.11446
