35
Pyridine_H10_Int2_Sub13.log	Energy: -596491.2844373
C          0.51260        0.83279       -0.51073
C          0.43902        1.59238       -1.68721
C          1.64522        1.01063        0.31364
C          1.47640        2.46176       -2.01647
H         -0.43686        1.50963       -2.33697
N          2.62856        1.85627       -0.00986
C          1.81121        0.28887        1.63424
C          2.55251        2.55366       -1.13616
H          1.44634        3.06165       -2.92880
H          3.38958        3.22865       -1.35087
O          0.07516       -2.07172        0.01137
C          1.03729       -2.43525       -0.66277
O          1.66834       -1.66193       -1.50183
C          1.58933       -3.81386       -0.54544
H          0.83466       -4.48531       -0.12222
H          1.94144       -4.17173       -1.52114
H          2.45639       -3.77774        0.13304
H          1.30736       -0.74391       -1.42494
Pd        -1.01518       -0.30987       -0.04793
O         -3.13365       -0.83725        0.40627
C         -3.36807        0.38224        0.25139
O         -2.40549        1.16883       -0.05958
C         -4.73337        0.96260        0.44293
H         -4.94148        1.70628       -0.33795
H         -5.48877        0.16796        0.43680
H         -4.76478        1.48224        1.41275
H          1.00148       -0.45421        1.71113
C          3.15634       -0.42864        1.70191
H          3.26983       -0.96157        2.65842
H          3.26736       -1.15861        0.88400
H          3.97575        0.29836        1.60289
C          1.64603        1.28511        2.78104
H          0.65302        1.75869        2.75061
H          1.75930        0.78457        3.75523
H          2.40583        2.07781        2.70372
