34
Pyridazine_H7_Int2_Sub5.log	Energy: -606532.6229488
C         -0.48746        0.85979       -0.48571
C         -1.66301        1.00564        0.28444
C         -0.39910        1.66747       -1.61694
N         -2.63624        1.85206       -0.06642
C         -1.90603        0.26119        1.57862
C         -1.47172        2.51454       -1.90662
H          0.48585        1.65634       -2.25874
N         -2.55632        2.58993       -1.14547
H         -1.46201        3.16508       -2.78694
O         -0.09050       -2.04380        0.05085
C         -0.99982       -2.42412       -0.68436
O         -1.53889       -1.68037       -1.61180
C         -1.59220       -3.78308       -0.54943
H         -0.88509       -4.45113       -0.04619
H         -2.50167       -3.69803        0.06639
H         -1.88576       -4.17557       -1.53101
H         -1.16260       -0.77233       -1.55499
Pd         1.02303       -0.29630       -0.02128
O          3.12437       -0.85123        0.43519
C          3.38247        0.36292        0.27248
O          2.43182        1.16234       -0.04522
C          4.75622        0.92000        0.46304
H          4.96791        1.67832       -0.30240
H          4.80334        1.41561        1.44481
H          5.50010        0.11506        0.43335
H         -1.09380       -0.47400        1.69210
C         -1.82610        1.23753        2.75156
H         -1.99056        0.71478        3.70638
H         -0.84057        1.72571        2.79253
H         -2.59176        2.02044        2.64257
C         -3.24363       -0.47354        1.54735
H         -3.29806       -1.18108        0.70442
H         -3.40351       -1.03457        2.48075
H         -4.06561        0.24575        1.42051
