54
Pyridine_H10_deriv2_Int2_Sub11.log	Energy: -768286.9825369
C         -0.69765        0.17208       -0.22557
C         -0.09550       -0.95330        0.34255
C          0.15908        1.13780       -0.76098
C          1.29653       -1.10543        0.40116
H         -0.74643       -1.73817        0.72755
N          1.47824        1.01560       -0.72220
H         -0.23278        2.04133       -1.24423
C          2.05843       -0.05034       -0.16416
C          1.89917       -2.36784        1.03988
C          3.57115        0.02134       -0.22048
O         -2.65294        2.31807       -0.09064
C         -2.14804        2.90238        0.86792
O         -1.39148        2.31077        1.75164
C         -2.34755        4.36041        1.09082
H         -3.12970        4.73981        0.42553
H         -2.60168        4.54648        2.14320
H         -1.39855        4.87900        0.88517
H         -1.21616        1.39071        1.43768
Pd        -2.64882        0.26098       -0.32836
O         -4.75721       -0.46219       -0.53220
C         -4.25481       -1.60517       -0.59987
O         -2.98282       -1.73511       -0.50642
C         -5.08592       -2.83003       -0.81663
H         -4.69102       -3.66731       -0.22614
H         -6.13295       -2.62913       -0.56026
H         -5.02701       -3.11314       -1.87882
C          0.80804       -3.32011        1.54542
H          1.28239       -4.20813        1.98970
H          0.18191       -2.85730        2.32303
H          0.15049       -3.66612        0.73412
C          2.71498       -3.15522        0.00051
H          3.55676       -2.58698       -0.41441
H          3.12363       -4.07078        0.45694
H          2.07085       -3.45459       -0.84028
C          2.75360       -1.99523        2.26327
H          3.16377       -2.90565        2.72857
H          3.59742       -1.33688        2.02173
H          2.13688       -1.48037        3.01597
H          4.00720       -0.87281        0.24113
C          4.08553        1.23568        0.56213
H          3.76140        1.16291        1.61413
H          3.60112        2.13483        0.14619
C          5.60159        1.36247        0.47688
H          5.93736        2.26020        1.02141
H          6.07068        0.49992        0.98564
C          6.07772        1.40753       -0.97070
H          7.17762        1.46622       -1.01330
H          5.69635        2.32876       -1.44696
C          5.57663        0.19921       -1.75368
H          6.04475       -0.71590       -1.34576
H          5.89473        0.26373       -2.80704
C          4.06052        0.07083       -1.67277
H          3.57510        0.93036       -2.16402
H          3.71831       -0.82978       -2.20964
