54
Pyridine_H10_deriv2_Int2_Sub3.log	Energy: -768278.4391210
C         -0.19727       -0.74492       -0.77714
C         -1.30387       -0.06519       -0.19840
C         -0.41839       -1.70450       -1.76923
C         -2.59421       -0.37841       -0.70356
C         -1.05883        0.98083        0.87202
N         -1.62695       -2.02889       -2.21906
H          0.42688       -2.23970       -2.21879
C         -2.65144       -1.37542       -1.69867
C         -3.98289        0.23128       -0.36876
H         -3.62633       -1.66093       -2.10574
O          1.99217       -1.99477        0.84784
C          1.24463       -2.79555        1.40427
O         -0.04610       -2.83463        1.22565
C          1.76705       -3.81044        2.36343
H          2.85844       -3.74891        2.42017
H          1.32493       -3.62810        3.35420
H          1.45079       -4.81403        2.04532
H         -0.30218       -2.14777        0.55849
Pd         1.71039       -0.38267       -0.43493
O          3.71033        0.57129       -0.63799
C          3.15525        1.36662       -1.42946
O          1.90680        1.22870       -1.67970
C          3.89485        2.49154       -2.08146
H          3.51591        3.44622       -1.68670
H          4.96938        2.40990       -1.88069
H          3.70289        2.48583       -3.16345
C         -4.07173        1.32990        0.69731
H         -5.11668        1.67502        0.73658
H         -3.82211        0.96857        1.70504
H         -3.45270        2.20653        0.46316
C         -4.53624        0.85786       -1.66353
H         -4.61615        0.13275       -2.48468
H         -5.54063        1.27279       -1.48357
H         -3.88493        1.67712       -2.00526
C         -4.91600       -0.89744        0.10673
H         -5.91569       -0.49186        0.32887
H         -5.04025       -1.69226       -0.64113
H         -4.52612       -1.36107        1.02621
H         -2.01117        1.18064        1.36375
C         -0.59882        2.30623        0.24699
H         -1.32886        2.61917       -0.51809
H          0.34874        2.14731       -0.29274
C         -0.43175        3.39489        1.30030
H         -0.05351        4.31728        0.83036
H         -1.41931        3.64866        1.72861
C          0.49612        2.94912        2.42431
H          0.58556        3.73858        3.18807
H          1.51082        2.79060        2.01593
C          0.00808        1.64992        3.05467
H         -0.97151        1.82416        3.53716
H          0.69437        1.32692        3.85426
C         -0.12616        0.54924        2.00923
H          0.88041        0.32137        1.61397
H         -0.50620       -0.37810        2.47009
