29
Pyridine_H10_Int2_Sub22.log	Energy: -547190.9487853
C          0.99201       -0.28751       -0.30258
C          1.48121       -1.40273        0.38317
C          1.89897        0.43047       -1.09938
C          2.83238       -1.75360        0.27983
H          0.79961       -2.01401        0.98319
N          3.18364        0.10663       -1.21389
H          1.56547        1.30178       -1.67593
C          3.63085       -0.94809       -0.54026
C          3.39283       -2.94225        1.00068
H          4.69633       -1.18474       -0.65638
O         -0.55280        2.17519       -0.33734
C          0.16007        2.80175        0.44650
O          0.90231        2.22857        1.35452
C          0.25114        4.28647        0.40879
H         -0.53730        4.69603       -0.23071
H          0.18427        4.69284        1.42702
H          1.23774        4.56466        0.00710
H          0.86764        1.25363        1.20682
Pd        -0.91451        0.14168       -0.19796
O         -3.11545       -0.19380       -0.03708
C         -2.82717       -1.40824        0.04344
O         -1.59434       -1.75913        0.01985
C         -3.87451       -2.47186        0.13624
H         -3.54579       -3.27240        0.81197
H         -4.82500       -2.04059        0.47231
H         -4.01732       -2.91409       -0.86173
H          3.26409       -2.84661        2.09035
H          4.46598       -3.06490        0.79666
H          2.88165       -3.86854        0.69444
