30
Pyridine_H10_deriv1_Int2_Sub8.log	Energy: -882679.4628418
C         -0.79909        0.75674       -0.05428
C         -1.19052        1.79268        0.82449
C         -1.60287        0.64100       -1.21013
C         -2.31463        2.57808        0.49857
O         -0.62694        2.11445        1.99250
N         -2.64357        1.36676       -1.53291
Cl        -1.20754       -0.63738       -2.34382
C         -2.99195        2.33339       -0.67867
H         -2.61561        3.37059        1.18526
H         -3.86045        2.93979       -0.95587
O         -0.10346       -2.12734        0.48496
C         -1.24588       -2.39889        0.85005
O         -2.16813       -1.50694        1.07159
C         -1.67728       -3.81000        1.05474
H         -0.80334       -4.46713        1.11160
H         -2.29789       -3.89227        1.95663
H         -2.29882       -4.10484        0.19483
H         -1.81641       -0.61540        0.81383
Pd         0.84533       -0.34684        0.03121
O          2.95789       -0.89430       -0.14491
C          3.17396        0.31301       -0.40546
O          2.18716        1.13002       -0.39217
C          4.53363        0.82131       -0.75642
H          4.69499        1.81229       -0.31198
H          5.30174        0.11205       -0.42573
H          4.59611        0.93139       -1.84996
C          0.55949        1.51993        2.46153
H          0.44745        0.43048        2.59560
H          1.40361        1.71650        1.78392
H          0.75529        1.97891        3.43936
