31
Pyridine_H10_deriv1_Int2_Sub7.log	Energy: -870229.7783151
C         -0.64907        0.74116       -0.24435
C         -0.49868        2.01487        0.37878
C         -1.76260        0.59583       -1.07760
C         -1.53250        2.96019        0.19641
N          0.59837        2.27978        1.13663
N         -2.72076        1.47896       -1.27030
Cl        -1.95593       -0.91258       -1.94891
C         -2.60268        2.63625       -0.62249
H         -1.48723        3.94212        0.66777
H         -3.40873        3.36215       -0.77731
O         -0.49828       -2.12226        0.59369
C         -1.53341       -2.05195        1.25537
O         -2.08249       -0.93143        1.62512
C         -2.26911       -3.27941        1.66624
H         -1.60444       -4.14883        1.62709
H         -2.70554       -3.15193        2.66493
H         -3.09507       -3.42600        0.95229
H         -1.60447       -0.18356        1.17937
Pd         0.76191       -0.62631       -0.05223
O          2.80104       -1.52140       -0.06863
C          3.20468       -0.38730       -0.39593
O          2.35149        0.57061       -0.50403
C          4.64004       -0.10089       -0.69734
H          4.93360        0.86559       -0.26607
H          5.27684       -0.90838       -0.31745
H          4.76331       -0.02766       -1.78872
H          1.40353        1.69874        0.91751
C          0.86546        3.57747        1.68785
H          1.81691        3.54303        2.23446
H          0.08432        3.87592        2.40583
H          0.93999        4.37044        0.91923
