28
Pyridazine_H7_deriv1_Int2_Sub18.log	Energy: -845554.2360785
C         -0.51388        0.41760       -0.61595
C         -0.80567        1.60828       -1.30451
C         -1.60992       -0.34821       -0.24589
N         -2.04180        2.01346       -1.57773
H         -0.01408        2.27219       -1.66564
C         -2.88410        0.14509       -0.55802
H         -1.49717       -1.30387        0.27222
N         -3.07328        1.29780       -1.19587
C         -4.14064       -0.60413       -0.22486
O          1.99579        1.73130       -0.08882
C          1.61489        2.50952        0.78638
O          0.67913        2.20909        1.64649
C          2.17647        3.87911        0.92200
H          3.08228        3.97618        0.31504
H          1.41910        4.59904        0.57443
H          2.38142        4.10060        1.97789
H          0.32303        1.32183        1.41464
Pd         1.29195       -0.21103       -0.23058
O          2.95900       -1.63233        0.12629
C          2.10357       -2.53291       -0.02742
O          0.88663       -2.19563       -0.25477
C          2.45241       -3.98462        0.01621
H          1.66033       -4.55035        0.52428
H          2.52289       -4.36159       -1.01567
H          3.41850       -4.12803        0.51444
Cl        -4.12763       -1.26202        1.43653
H         -4.28020       -1.45847       -0.90327
H         -4.99354        0.07725       -0.32868
