37
Pyridazine_H7_deriv1_Int2_Sub13.log	Energy: -631183.8121478
C         -0.77034       -0.20002       -0.63381
C         -1.22803        0.07445       -1.93601
C         -1.66464       -0.85412        0.22273
N         -2.43351       -0.25334       -2.38148
H         -0.58987        0.58637       -2.66370
C         -2.92874       -1.18419       -0.33677
C         -1.33538       -1.27618        1.64214
N         -3.26989       -0.87837       -1.58820
C         -3.98751       -1.91329        0.43660
O          0.69203        2.29137        0.09913
C         -0.31661        2.95334        0.33007
O         -1.52555        2.46133        0.34512
C         -0.24237        4.41313        0.61876
H          0.80093        4.74395        0.62306
H         -0.81490        4.96154       -0.14369
H         -0.71592        4.61726        1.58993
H         -1.49613        1.50556        0.10469
Pd         1.08469        0.28267       -0.22771
O          3.28102        0.05606        0.00885
C          3.10007       -1.15080       -0.26872
O          1.90881       -1.56082       -0.50773
C          4.22064       -2.13836       -0.32340
H          4.05907       -2.91292        0.44070
H          4.22163       -2.64030       -1.30142
H          5.18001       -1.63700       -0.15138
H         -4.32820       -1.33610        1.31066
H         -3.62744       -2.88659        0.80399
H         -4.84268       -2.07926       -0.22969
H         -2.29072       -1.51866        2.13002
C         -0.49349       -2.55501        1.62364
H         -0.30292       -2.90336        2.65083
H         -1.00950       -3.36153        1.08083
H          0.47065       -2.38454        1.12212
C         -0.68537       -0.18460        2.48829
H         -1.29624        0.73124        2.51169
H         -0.56818       -0.53439        3.52514
H          0.31870        0.07822        2.11470
