29
Pyridine_H10_deriv1_Int2_Sub9.log	Energy: -1022257.1859923
C          0.32605       -0.24949        0.33578
C          1.43278        0.41696       -0.19810
C          0.63622       -1.30762        1.21467
C          2.72901        0.00219        0.12022
H          1.28253        1.28097       -0.85122
N          1.84836       -1.70034        1.53443
Cl        -0.66378       -2.19190        1.96790
C          2.88628       -1.06677        0.99730
C          3.91166        0.68848       -0.49956
H          3.88285       -1.41627        1.28225
O         -2.29693       -1.35251       -0.62175
C         -1.77892       -2.28038       -1.23869
O         -0.53447       -2.27743       -1.63450
C         -2.53537       -3.51985       -1.55989
H         -3.61199       -3.32386       -1.51906
H         -2.23513       -3.91637       -2.53785
H         -2.27865       -4.27040       -0.79529
H         -0.09353       -1.47360       -1.27750
Pd        -1.47113        0.44769       -0.04312
O         -3.08116        1.92808       -0.22898
C         -2.23596        2.77184        0.15108
O         -1.03966        2.37602        0.38881
C         -2.57945        4.20895        0.36285
H         -1.75382        4.84975        0.02622
H         -3.50925        4.45795       -0.16219
H         -2.71941        4.38270        1.44083
F          3.77413        2.01629       -0.47398
F          4.05703        0.33646       -1.78300
F          5.04863        0.38293        0.12804
