28
Pyridazine_H7_Int2_Sub14.log	Energy: -557232.9268571
C         -0.88337       -0.78646       -0.25451
C         -1.82567       -0.63073       -1.28445
C         -1.11883       -1.83109        0.64740
N         -2.89921       -1.40168       -1.44106
H         -1.71666        0.16045       -2.03405
C         -2.27780       -2.58897        0.40486
C         -0.21473       -2.14866        1.79746
N         -3.12406       -2.37907       -0.59363
H         -2.53356       -3.42348        1.06821
O         -0.41047        2.08662       -0.28724
C         -1.40540        2.38904        0.37077
O         -2.03157        1.55411        1.15482
C         -1.99687        3.75335        0.31323
H         -1.32399        4.43392       -0.21802
H         -2.96214        3.69513       -0.21282
H         -2.20008        4.11503        1.33049
H         -1.64809        0.65659        1.02562
Pd         0.70847        0.35154       -0.18297
O          2.84347        0.94488       -0.13847
C          3.09547       -0.28064       -0.10554
O          2.11996       -1.11280       -0.09371
C          4.49268       -0.81046       -0.10614
H          4.58042       -1.64770        0.59920
H          4.72416       -1.19711       -1.11037
H          5.20193       -0.01280        0.14413
H         -0.57602       -3.01974        2.36115
H         -0.14111       -1.29554        2.49096
H          0.80454       -2.34493        1.43348
