42
Pyridine_H10_Int2_Sub19.log	Energy: -669690.5781970
C          0.37731       -0.65995       -0.63037
C         -0.91697       -0.28855       -0.25586
C          0.52056       -1.83387       -1.38757
C         -2.00774       -1.08856       -0.61449
H         -1.06974        0.64197        0.29930
N         -0.50611       -2.60128       -1.74337
H          1.51096       -2.16130       -1.72636
C         -1.72589       -2.23791       -1.36151
C         -3.41956       -0.72920       -0.23309
H         -2.55015       -2.89470       -1.66876
O          3.17059       -1.08470        0.05009
C          2.98516       -2.01631        0.83310
O          1.87075       -2.18926        1.49028
C          4.02620       -3.04979        1.08298
H          4.98357       -2.73037        0.65904
H          4.11574       -3.23944        2.16115
H          3.70450       -3.98987        0.60875
H          1.21302       -1.53429        1.15525
Pd         1.87320        0.51351       -0.16906
O          2.97488        2.41421        0.24079
C          1.87874        2.98023        0.03596
O          0.84916        2.26620       -0.23587
C          1.73179        4.46839        0.06675
H          0.76621        4.74714        0.50885
H          2.56245        4.92065        0.62160
H          1.74784        4.84552       -0.96738
H         -4.07643       -1.52829       -0.62427
C         -3.87157        0.58891       -0.87518
H         -3.75988        0.52363       -1.96931
H         -3.19638        1.39846       -0.54445
C         -5.30660        0.93827       -0.49799
H         -5.59136        1.90313       -0.94781
H         -5.98895        0.18295       -0.92875
C         -5.49457        0.97799        1.01459
H         -6.54509        1.19543        1.26672
H         -4.89639        1.80853        1.43182
C         -5.05173       -0.32996        1.66121
H         -5.72132       -1.14425        1.32927
H         -5.15456       -0.27349        2.75702
C         -3.61616       -0.68059        1.28726
H         -2.93250        0.07645        1.71217
H         -3.32251       -1.64646        1.72949
