44
Pyridazine_H7_deriv1_Int2_Sub11.log	Energy: -704384.5428785
C         -0.83861        0.45098       -0.88211
C         -1.41164        1.30298       -1.84431
C         -1.61071       -0.64323       -0.47078
N         -2.61513        1.12138       -2.37092
H         -0.87290        2.18148       -2.21419
C         -2.88159       -0.77357       -1.09425
C         -1.14355       -1.69358        0.51113
N         -3.33761        0.09187       -1.99864
C         -3.81598       -1.90616       -0.78691
O          0.41614        2.39531        0.97971
C         -0.62805        2.70659        1.54701
O         -1.76877        2.09916        1.36368
C         -0.68228        3.83812        2.51481
H          0.31919        4.25292        2.66646
H         -1.35981        4.61200        2.12442
H         -1.10480        3.48628        3.46679
H         -1.66469        1.39935        0.67712
Pd         0.98627        0.86768       -0.30256
O          3.20405        0.79910       -0.20502
C          3.12814       -0.12306       -1.04783
O          1.97285       -0.48517       -1.46932
C          4.33505       -0.83264       -1.57133
H          4.30285       -1.88399       -1.24860
H          4.32026       -0.82783       -2.67029
H          5.24951       -0.35735       -1.19815
H         -4.13446       -1.90021        0.26741
H         -3.35028       -2.88388       -0.98478
H         -4.70291       -1.79931       -1.42308
H         -2.02926       -2.26974        0.82303
C         -0.52497       -1.13872        1.79814
H         -1.24662       -0.47775        2.30694
H          0.35295       -0.51533        1.54262
C         -0.07812       -2.25657        2.73208
H          0.38711       -1.82729        3.63405
H         -0.96308       -2.82165        3.07809
C          0.88495       -3.20964        2.03408
H          1.18821       -4.01865        2.71800
H          1.80668       -2.66039        1.76917
C          0.26334       -3.78435        0.76668
H         -0.60229       -4.41452        1.04209
H          0.97732       -4.44810        0.25284
C         -0.18952       -2.68080       -0.18127
H          0.68315       -2.12633       -0.56317
H         -0.68849       -3.11080       -1.06520
