26
Pyridine_H10_Int2_Sub10.log	Energy: -810862.0541389
C         -0.66169        0.93805        0.18915
C         -0.64088        1.94629        1.16247
C         -1.76696        0.97521       -0.68272
C         -1.67705        2.87792        1.23881
H          0.20423        2.00677        1.85370
N         -2.74802        1.84702       -0.63025
Cl        -1.88487       -0.21962       -1.95396
C         -2.71288        2.78388        0.31506
H         -1.67341        3.66609        1.99450
H         -3.54788        3.49260        0.32927
O         -0.22215       -2.02447        0.08409
C         -1.26168       -2.27965        0.68688
O         -1.89440       -1.41716        1.43525
C         -1.91304       -3.61328        0.58226
H         -1.18578       -4.36164        0.25012
H         -2.37495       -3.89669        1.53627
H         -2.71233       -3.53137       -0.17149
H         -1.45924       -0.53813        1.33876
Pd         0.87412       -0.27532        0.03583
O          2.98534       -0.88731       -0.14184
C          3.25140        0.33657       -0.11675
O          2.29037        1.17472        0.00961
C          4.64644        0.85213       -0.25968
H          4.79659        1.72805        0.38500
H          5.36881        0.06173       -0.02324
H          4.79812        1.17282       -1.30183
