35
Pyridine_H10_Int2_Sub5.log	Energy: -596490.0851449
C         -0.87017        0.34252       -0.65675
C         -1.31751        1.50434        0.00975
C         -1.65664       -0.16980       -1.70105
C         -2.53453        2.04577       -0.42264
C         -0.52443        2.11637        1.14832
N         -2.80832        0.36122       -2.10753
H         -1.32760       -1.06896       -2.23723
C         -3.23107        1.44811       -1.47078
H         -2.94295        2.94241        0.04716
H         -4.18084        1.87742       -1.81115
O         -0.02933       -2.36649        0.07724
C         -1.07137       -2.65767        0.66263
O         -1.96196       -1.78195        1.03867
C         -1.41292       -4.07024        0.98943
H         -0.56562       -4.72547        0.76379
H         -1.69435       -4.14624        2.04904
H         -2.29006       -4.36991        0.39624
H         -1.70945       -0.89776        0.67633
Pd         0.84724       -0.52482       -0.26500
O          3.04932       -0.79034       -0.02096
C          3.13402        0.42549       -0.30121
O          2.06126        1.08871       -0.53276
C          4.44692        1.13549       -0.39643
H          4.39398        2.09481        0.13641
H          5.24934        0.50921        0.01054
H          4.65677        1.35742       -1.45365
H          0.53087        2.07772        0.83254
C         -0.87780        3.57051        1.43170
H         -0.18136        3.98771        2.17436
H         -0.81158        4.18912        0.52413
H         -1.89369        3.67742        1.84545
C         -0.65773        1.26805        2.41592
H         -0.29151        0.24256        2.25298
H         -0.06456        1.70086        3.23619
H         -1.70723        1.21204        2.74857
