31
Pyridazine_H7_deriv1_Int2_Sub6.log	Energy: -581887.5993147
C         -0.82850       -0.50359       -0.22620
C         -1.64872       -0.21773       -1.34561
C         -1.38041       -1.32817        0.74254
N         -2.89159       -0.69016       -1.43431
C         -1.17218        0.59718       -2.50690
C         -2.70053       -1.78756        0.57168
H         -0.80701       -1.63215        1.62342
N         -3.41453       -1.44609       -0.49633
C         -3.36138       -2.68080        1.57379
O          0.40148        2.15305        0.02850
C         -0.54325        2.66913        0.62350
O         -1.49222        1.99010        1.20773
C         -0.69447        4.14774        0.71430
H          0.20285        4.64264        0.32960
H         -1.57325        4.45024        0.12466
H         -0.88566        4.43814        1.75665
H         -1.37153        1.03016        1.02114
Pd         0.99634        0.16575       -0.03719
O          3.21046        0.12439        0.15663
C          3.09935       -1.12087        0.08970
O          1.93100       -1.63605       -0.01926
C          4.28620       -2.02986        0.10424
H          4.07302       -2.92280        0.70678
H          4.48842       -2.36361       -0.92504
H          5.16615       -1.49979        0.48747
H         -3.35091       -2.23356        2.57974
H         -2.84100       -3.64943        1.63920
H         -4.40022       -2.85774        1.26860
H         -1.98640        0.69463       -3.23599
H         -0.31054        0.11018       -2.99035
H         -0.83534        1.59759       -2.19568
