28
Pyridazine_H7_Int2_Sub6.log	Energy: -557233.2527711
C         -0.79659       -0.89855        0.07966
C         -1.74685       -1.03821       -0.96113
C         -1.01969       -1.66748        1.21598
N         -2.81537       -1.83139       -0.83980
C         -1.60469       -0.33968       -2.27700
C         -2.16777       -2.46807        1.25141
H         -0.32324       -1.66216        2.05890
N         -3.03474       -2.52727        0.25205
H         -2.40176       -3.08747        2.12334
O         -0.32011        1.99142       -0.23668
C         -1.32083        2.35305        0.38038
O         -2.00030        1.57601        1.17899
C         -1.86233        3.73380        0.25050
H         -1.16303        4.36149       -0.31082
H         -2.82889        3.68620       -0.27397
H         -2.05286        4.15378        1.24778
H         -1.63428        0.66311        1.13442
Pd         0.78279        0.24385       -0.05088
O          2.92890        0.80925       -0.10695
C          3.15919       -0.41265        0.04070
O          2.17115       -1.22179        0.14992
C          4.54740       -0.96607        0.06575
H          4.62477       -1.76404        0.81605
H          4.76825       -1.41021       -0.91697
H          5.27108       -0.16730        0.26692
H         -2.46922       -0.58143       -2.90783
H         -0.68380       -0.66593       -2.78572
H         -1.52876        0.75139       -2.15694
