33
Pyridazine_H7_deriv1_Int2_Sub7.log	Energy: -616602.5906625
C          0.62751        0.64166       -0.06046
C          1.78723        0.21976       -0.77409
C          0.74627        1.85068        0.59395
N          2.90981        0.93931       -0.78251
N          1.81690       -0.96944       -1.45506
C          1.97447        2.54974        0.55551
H         -0.10590        2.27583        1.13206
N          3.00692        2.06964       -0.12075
C          2.16082        3.85617        1.26232
O         -0.23090       -2.14989        0.30729
C          0.69933       -2.40285        1.07474
O          1.30463       -1.50518        1.79775
C          1.22866       -3.78522        1.21945
H          0.48632       -4.51280        0.87482
H          2.12834       -3.85944        0.58798
H          1.52871       -3.97875        2.25693
H          0.99422       -0.60914        1.52287
Pd        -1.09616       -0.30391       -0.02391
O         -3.30030       -0.58311       -0.10276
C         -3.35607        0.65331       -0.29048
O         -2.26572        1.32675       -0.31793
C         -4.64943        1.36918       -0.51230
H         -4.63635        2.34292       -0.00502
H         -4.76905        1.55656       -1.59044
H         -5.48819        0.75599       -0.16200
H          1.98772        3.75741        2.34574
H          1.45918        4.61752        0.88601
H          3.18683        4.20903        1.09803
H          0.90729       -1.32876       -1.71515
C          2.92531       -1.29648       -2.31526
H          2.77582       -2.30797       -2.71772
H          3.86444       -1.27131       -1.74614
H          3.04216       -0.58783       -3.15467
