35
Pyridine_H10_deriv1_Int2_Sub21.log	Energy: -884815.9287185
C         -0.31079       -0.33302       -0.21872
C         -0.80035       -1.16661       -1.23273
C         -1.29173        0.14346        0.67101
C         -2.16326       -1.44739       -1.32822
H         -0.10054       -1.61066       -1.94609
N         -2.57406       -0.11681        0.59725
Cl        -0.80365        1.17677        1.99712
C         -3.03353       -0.89847       -0.38536
H         -2.54656       -2.09407       -2.12057
C         -4.52274       -1.14873       -0.40673
O          1.55042        2.00054       -0.00893
C          0.77670        2.76430       -0.58115
O         -0.20732        2.36425       -1.33936
C          0.88545        4.24018       -0.42413
H          1.89157        4.50900       -0.08543
H          0.62626        4.75095       -1.35997
H          0.15579        4.54514        0.34284
H         -0.27476        1.38179       -1.27496
Pd         1.62580       -0.06256       -0.03952
O          3.75951       -0.59844        0.13251
C          3.37591       -1.78870        0.05868
O          2.12549       -2.02742       -0.08530
C          4.32405       -2.93906        0.16349
H          4.01991       -3.74624       -0.51577
H          5.34693       -2.60823       -0.05268
H          4.28707       -3.33340        1.19064
H         -4.73118       -1.80796       -1.26618
C         -4.96028       -1.85839        0.87312
H         -6.04613       -2.03909        0.86820
H         -4.45099       -2.82697        0.98956
H         -4.71302       -1.23884        1.74836
C         -5.27782        0.16473       -0.60258
H         -4.99753        0.65296       -1.54848
H         -6.36510       -0.00683       -0.61423
H         -5.04287        0.85768        0.21955
