35
Styrene_H9_Int2_Sub24.log	Energy: -632824.7995661
C          0.61350       -0.27491        0.09019
C          1.42921        0.31018        1.09570
C          1.22399       -1.09941       -0.86084
C          0.93317        1.16537        2.18545
C          2.80942        0.07693        1.06318
C          2.60072       -1.33960       -0.87505
H          0.60526       -1.58207       -1.62220
C         -0.31030        1.23037        2.67599
H          1.70637        1.77967        2.66186
C          3.40457       -0.73983        0.09755
H          3.45936        0.52650        1.81770
H          3.02305       -1.98830       -1.64283
H         -1.12280        0.61071        2.28163
H         -0.54830        1.90133        3.50507
O          4.74284       -0.88680        0.18378
O         -1.27749        1.98482       -0.32100
C         -0.42828        2.70256       -0.84515
O          0.72417        2.27394       -1.27466
C         -0.65112        4.16674       -1.01433
H         -1.71178        4.40404       -0.88185
H         -0.06059        4.69556       -0.25011
H         -0.29071        4.49505       -1.99809
H          0.82747        1.32052       -1.01962
Pd        -1.33371       -0.07029       -0.08023
O         -3.47453       -0.68175       -0.23697
C         -3.05146       -1.84976       -0.08273
O         -1.79379       -2.04842        0.04871
C         -3.97315       -3.02729       -0.01944
H         -4.06938       -3.34678        1.02947
H         -4.96333       -2.75684       -0.40494
H         -3.55035       -3.86914       -0.58403
C          5.38851       -1.70702       -0.74790
H          5.02575       -2.74916       -0.69991
H          5.26220       -1.33632       -1.78088
H          6.45634       -1.69201       -0.49512
