43
Styrene_H9_Int2_Sub12.log	Energy: -659611.6201646
C         -0.56923        1.39977       -0.47061
C          0.72456        1.67870       -0.97793
C         -1.56916        2.37896       -0.56604
C          1.84144        0.72301       -0.95206
C          0.96811        2.95799       -1.51191
C         -1.30725        3.63363       -1.11666
H         -2.57452        2.15111       -0.20185
C          1.73442       -0.61286       -0.98127
H          2.83783        1.17844       -0.94478
C         -0.02747        3.92475       -1.58583
H          1.97064        3.18277       -1.88762
H         -2.10231        4.38123       -1.17261
H          0.72619       -1.04608       -1.05413
C          2.84316       -1.62982       -0.91740
H          0.19497        4.90569       -2.01230
O          0.30583       -0.22389        1.87870
C          0.83811        0.72649        2.44711
O          0.65025        1.97294        2.11838
C          1.79211        0.51616        3.57294
H          1.66339       -0.48728        3.99228
H          2.81465        0.61244        3.17487
H          1.65837        1.28919        4.34056
H          0.10449        2.01191        1.29332
Pd        -1.10640       -0.29452        0.36298
O         -2.29385       -2.15964        0.69015
C         -2.95310       -1.79974       -0.31128
O         -2.65103       -0.70439       -0.90093
C         -4.07345       -2.62435       -0.86380
H         -3.72549       -3.13014       -1.77739
H         -4.38794       -3.37840       -0.13259
H         -4.91561       -1.97774       -1.14475
C          4.22418       -0.98904       -0.80807
H          5.00213       -1.76605       -0.75305
H          4.44556       -0.35497       -1.68040
H          4.30810       -0.36624        0.09631
C          2.58607       -2.51490        0.31218
H          1.58844       -2.97878        0.26727
H          3.33608       -3.31975        0.37416
H          2.63128       -1.92441        1.23964
C          2.77411       -2.49540       -2.18349
H          3.53025       -3.29606       -2.14879
H          1.78515       -2.96886       -2.28574
H          2.95360       -1.89017       -3.08518
