31
Styrene_H13_Int2_Sub18.log	Energy: -849331.9358718
C          0.00908       -0.69030        0.62792
C          1.28581       -0.30335        0.21645
C         -0.14617       -1.86669        1.37959
C          2.41876       -1.07807        0.52587
H          1.39671        0.63244       -0.33636
C          0.97024       -2.63794        1.69833
H         -1.13685       -2.17686        1.72237
C          3.77480       -0.70711        0.11449
C          2.23777       -2.25378        1.26989
H          0.85035       -3.54958        2.28949
C          4.12396        0.42000       -0.51687
H          4.56671       -1.42207        0.35898
H          3.10736       -2.86672        1.52083
H          3.42106        1.20748       -0.79588
Cl         5.74941        0.77236       -0.96280
O         -2.75397       -1.13180       -0.15548
C         -2.52522       -2.01954       -0.97695
O         -1.37879       -2.16093       -1.58367
C         -3.55368       -3.03153       -1.34399
H         -4.51790       -2.76793       -0.89799
H         -3.63464       -3.09688       -2.43796
H         -3.22666       -4.01765       -0.98107
H         -0.73540       -1.52752       -1.18463
Pd        -1.49816        0.47885        0.19445
O         -2.63423        2.37327       -0.14246
C         -1.55591        2.95202        0.11597
O         -0.51652        2.24855        0.37637
C         -1.44229        4.44286        0.16114
H         -1.46599        4.76691        1.21292
H         -0.48248        4.76444       -0.26435
H         -2.28168        4.90447       -0.37237
