47
Styrene_H13_Int2_Sub3.log	Energy: -708160.5777887
C          0.52206        0.78989       -0.20063
C          1.59714        1.68299       -0.17124
C         -0.75280        1.22913       -0.61969
C          1.44888        3.03228       -0.53716
H          2.58062        1.31448        0.13123
C         -0.89251        2.57053       -0.99511
C         -1.92908        0.28546       -0.68568
C          2.55661        3.99436       -0.50860
C          0.17899        3.45585       -0.95084
H         -1.86705        2.93441       -1.33251
C          3.82576        3.75941       -0.15468
H          2.28545        5.01025       -0.81880
H          0.03303        4.49843       -1.24615
H          4.17368        2.77248        0.16212
H          4.56942        4.55901       -0.17517
O         -0.36678       -1.01839        1.96118
C         -0.64050       -0.10588        2.73913
O         -0.26325        1.13064        2.57811
C         -1.48057       -0.34966        3.94639
H         -1.43772       -1.40811        4.22506
H         -1.16271        0.29558        4.77484
H         -2.52170       -0.09062        3.69632
H          0.18999        1.22642        1.70241
Pd         0.88207       -1.07088        0.30596
O          1.80263       -3.11101        0.20818
C          2.39506       -2.68358       -0.80753
O          2.19813       -1.47682       -1.18859
C          3.31729       -3.54389       -1.61375
H          2.82583       -3.80078       -2.56435
H          4.23300       -2.98792       -1.85703
H          3.55517       -4.46420       -1.06753
H         -1.60435       -0.66711       -0.23164
C         -2.32428       -0.03703       -2.13177
H         -1.44278       -0.41757       -2.67190
H         -2.62592        0.89600       -2.64162
C         -3.46656       -1.04545       -2.18186
H         -3.75869       -1.23775       -3.22695
H         -3.11034       -2.01006       -1.77728
C         -4.66996       -0.57542       -1.37122
H         -5.46515       -1.33830       -1.38546
H         -5.09686        0.32672       -1.84631
C         -4.27985       -0.24161        0.06509
H         -3.95584       -1.16553        0.57816
H         -5.15254        0.13553        0.62310
C         -3.14496        0.77512        0.10759
H         -3.49897        1.73290       -0.31384
H         -2.85092        0.99575        1.14764
