43
Styrene_H13_Int2_Sub20.log	Energy: -659611.8388705
C          0.59413       -0.72642       -0.72342
C         -0.72999       -0.42458       -0.39913
C          0.87773       -1.88058       -1.47219
C         -1.78940       -1.26421       -0.78993
H         -0.94061        0.49786        0.14703
C         -0.16423       -2.71276       -1.87738
H          1.90819       -2.12459       -1.74403
C         -3.19295       -0.98523       -0.46256
C         -1.47992       -2.41249       -1.53422
H          0.05273       -3.60659       -2.46837
C         -3.66137        0.06218        0.23010
H         -3.90233       -1.72814       -0.84128
H         -2.28984       -3.07472       -1.85204
H         -2.94999        0.80774        0.60746
C         -5.09979        0.36462        0.56808
O          3.26977       -1.03525        0.35341
C          2.98814       -1.93657        1.14274
O          1.78453       -2.14794        1.59904
C          4.01905       -2.88762        1.64382
H          5.01593       -2.56347        1.32865
H          3.95888       -2.95580        2.73893
H          3.80320       -3.88898        1.24162
H          1.15700       -1.55932        1.11346
Pd         1.99750        0.51645       -0.16791
O          3.01639        2.46998        0.24026
C          1.94880        2.99360       -0.14771
O          0.97329        2.24194       -0.50027
C          1.77941        4.47760       -0.24325
H          1.90456        4.78036       -1.29420
H          0.76637        4.76565        0.06738
H          2.53570        4.98672        0.36601
C         -6.06458       -0.68964        0.03132
H         -7.09975       -0.42942        0.30076
H         -6.01245       -0.76219       -1.06588
H         -5.84925       -1.68430        0.45117
C         -5.22387        0.44077        2.09705
H         -4.53892        1.19539        2.51505
H         -6.24927        0.71770        2.39044
H         -4.98291       -0.52804        2.56077
C         -5.45094        1.73362       -0.03336
H         -6.47900        2.02431        0.23659
H         -4.77087        2.51725        0.33619
H         -5.37544        1.71242       -1.13119
