40
Styrene_H9_Int2_Sub13.log	Energy: -634961.4300636
C         -0.06228        1.44017       -0.39818
C          1.21460        1.41055       -1.01379
C         -0.76511        2.65257       -0.33606
C          2.03732        0.20238       -1.16096
C          1.74756        2.62135       -1.49555
C         -0.22093        3.83612       -0.83527
H         -1.76286        2.66712        0.11067
C          1.61116       -1.06821       -1.19483
H          3.11144        0.38714       -1.29225
C          1.04711        3.81861       -1.41304
H          2.73948        2.60542       -1.95655
H         -0.78772        4.76795       -0.76767
H          0.53146       -1.26841       -1.12227
C          2.48890       -2.27497       -1.31590
H          1.49034        4.73818       -1.80228
O          0.50606       -0.55431        1.75175
C          1.31250        0.16938        2.33110
O          1.44696        1.44448        2.10017
C          2.24430       -0.37813        3.35753
H          1.90980       -1.37012        3.67831
H          3.24497       -0.45840        2.90487
H          2.32031        0.31010        4.20969
H          0.87657        1.69680        1.33148
Pd        -0.98212       -0.10982        0.37950
O         -2.61691       -1.59548        0.71281
C         -3.22506       -0.98509       -0.19532
O         -2.67370        0.03009       -0.74665
C         -4.57224       -1.41993       -0.68129
H         -4.45277       -1.93097       -1.64884
H         -5.03099       -2.11094        0.03582
H         -5.21496       -0.54488       -0.84686
H          3.53243       -1.93017       -1.43007
C          2.39879       -3.12082       -0.04371
H          3.03210       -4.01869       -0.12119
H          2.71795       -2.54806        0.83964
H          1.36268       -3.45070        0.13543
C          2.11344       -3.09655       -2.54885
H          2.20443       -2.50040       -3.46897
H          2.76132       -3.98179       -2.64634
H          1.07167       -3.45024       -2.47955
