40
Styrene_H9_Int2_Sub5.log	Energy: -634958.4998705
C          0.76717        0.40407       -0.59378
C          1.54323       -0.08163       -1.67867
C          1.10593        1.62338        0.02852
C          1.30388       -1.34443       -2.39595
C          2.64909        0.67359       -2.10389
C          2.20597        2.35332       -0.44634
C          0.30214        2.17098        1.19611
C          0.18474       -2.07512       -2.47166
H          2.17180       -1.69244       -2.96896
C          2.97355        1.88433       -1.50499
H          3.25651        0.29428       -2.93038
H          2.46741        3.30115        0.03134
H         -0.74447       -1.78024       -1.97219
H          0.16364       -2.99519       -3.06101
H          3.83274        2.45873       -1.85892
O          0.22102       -2.05023        0.99756
C          1.36712       -2.11210        1.43787
O          2.25781       -1.17239        1.29654
C          1.84581       -3.31308        2.18077
H          1.00449       -3.97464        2.41084
H          2.57693       -3.84570        1.55367
H          2.36470       -3.00307        3.09810
H          1.88860       -0.45265        0.72041
Pd        -0.83283       -0.53933        0.05824
O         -3.01361       -0.92610        0.41487
C         -3.20784        0.12342       -0.23739
O         -2.20397        0.76773       -0.70426
C         -4.58054        0.66038       -0.49764
H         -4.75713        0.70048       -1.58239
H         -5.33607        0.02815       -0.01709
H         -4.64902        1.69009       -0.11810
H         -0.38938        1.36791        1.50603
C          1.17801        2.51029        2.39975
H          0.55489        2.81619        3.25439
H          1.78248        1.64428        2.71199
H          1.86942        3.34084        2.18594
C         -0.55631        3.35454        0.75264
H         -1.23575        3.05042       -0.05600
H         -1.16232        3.72966        1.59282
H          0.06881        4.18694        0.39060
