47
Styrene_H9_Int2_Sub11.log	Energy: -708161.4120500
C          1.72863       -0.83710       -0.56596
C          0.85216       -1.81332       -1.10388
C          3.11332       -0.99982       -0.72094
C         -0.61307       -1.74755       -1.02407
C          1.41789       -2.93884       -1.73306
C          3.64802       -2.11707       -1.36247
H          3.78641       -0.23055       -0.33314
C         -1.36789       -0.64877       -0.88018
H         -1.12613       -2.71213       -1.13000
C          2.79209       -3.09487       -1.86605
H          0.74509       -3.70208       -2.13488
H          4.73110       -2.22154       -1.46336
H         -0.87255        0.33240       -0.82975
C         -2.85611       -0.63066       -0.76279
H          3.19523       -3.97919       -2.36506
O          0.13962       -0.18492        1.88594
C          0.29740       -1.29465        2.38913
O          1.16965       -2.16795        1.97249
C         -0.53997       -1.74998        3.53498
H         -1.05493       -0.89606        3.98711
H         -1.28531       -2.46450        3.15206
H          0.07761       -2.27831        4.27322
H          1.59706       -1.83063        1.14570
Pd         1.17213        0.79222        0.37784
O          1.02643        2.97588        0.82778
C          1.73270        3.13460       -0.19355
O          2.12080        2.10867       -0.85340
C          2.11934        4.49284       -0.68945
H          1.49909        4.74133       -1.56417
H          1.95604        5.24432        0.09209
H          3.16754        4.49134       -1.01730
H         -3.23335       -1.66110       -0.90557
C         -3.49157        0.26271       -1.83584
H         -3.21149       -0.10613       -2.83557
H         -3.06123        1.27732       -1.74734
C         -5.00728        0.34100       -1.69400
H         -5.42458        1.01284       -2.46147
H         -5.44209       -0.65670       -1.88698
C         -5.41521        0.80426       -0.30002
H         -6.51303        0.81990       -0.20443
H         -5.07454        1.84479       -0.14995
C         -4.79956       -0.08243        0.77659
H         -5.22617       -1.09901        0.69593
H         -5.06733        0.28682        1.78003
C         -3.28374       -0.16318        0.63713
H         -2.83706        0.82882        0.83127
H         -2.85852       -0.84069        1.39507
