34
Styrene_H13_Int2_Sub14.log	Energy: -585659.6553354
C          0.63547        0.13912       -0.37181
C          1.42815       -0.77059        0.33152
C          1.26571        1.08347       -1.19376
C          2.82973       -0.75930        0.24005
H          0.94551       -1.51476        0.96959
C          2.65566        1.10374       -1.28835
H          0.67549        1.80581       -1.76432
C          3.63167       -1.74427        0.98198
C          3.45836        0.20387       -0.58112
H          3.13624        1.84072       -1.93868
C          3.21610       -2.95094        1.38599
H          4.66324       -1.45508        1.20836
C          4.95229        0.25825       -0.72519
H          2.21270       -3.32445        1.16169
H          3.87929       -3.61445        1.94599
O         -1.53244        2.06191       -0.16360
C         -0.97039        2.80207        0.64341
O         -0.00217        2.41414        1.42647
C         -1.35183        4.23462        0.78770
H         -2.24398        4.44918        0.19088
H         -1.52811        4.46463        1.84780
H         -0.51230        4.86212        0.45262
H          0.26265        1.49814        1.16514
Pd        -1.31010        0.00218       -0.22630
O         -3.32942       -0.95474       -0.08799
C         -2.70774       -2.03978       -0.11788
O         -1.42838       -2.02790       -0.18084
C         -3.41162       -3.36055       -0.11098
H         -3.42437       -3.75997       -1.13667
H         -2.86719       -4.07761        0.51777
H         -4.44407       -3.23958        0.23787
H          5.36040       -0.69668       -1.09213
H          5.44988        0.47179        0.23519
H          5.24903        1.04458       -1.43282
