34
Styrene_H9_Int2_Sub6.log	Energy: -585659.3536602
C          0.78878       -0.82547        0.07065
C          1.70087       -0.78590        1.15394
C          0.98373       -1.74403       -0.98474
C          1.59763        0.11906        2.31025
C          2.81130       -1.65038        1.13284
C          2.09422       -2.59710       -0.95496
C          0.01985       -1.81637       -2.13625
C          0.51235        0.73542        2.79420
H          2.54192        0.25521        2.85114
C          3.00602       -2.55097        0.09570
H          3.52474       -1.60768        1.96046
H          2.24328       -3.30173       -1.77777
H         -0.47880        0.61151        2.34459
H          0.58433        1.37562        3.67694
H          3.87215       -3.21666        0.10156
O          0.24623        2.07849       -0.32177
C          1.36985        2.30941       -0.76365
O          2.23486        1.38888       -1.07971
C          1.84928        3.70698       -0.96401
H          1.01458        4.40912       -0.87039
H          2.60754        3.92944       -0.19766
H          2.33542        3.80055       -1.94452
H          1.87357        0.50025       -0.82512
Pd        -0.80531        0.32264       -0.03054
O         -2.97877        0.86377       -0.05749
C         -3.18766       -0.35782        0.11160
O         -2.19156       -1.15957        0.19322
C         -4.56824       -0.92082        0.24247
H         -4.72796       -1.23856        1.28388
H         -5.31557       -0.16555       -0.02747
H         -4.67071       -1.81224       -0.39158
H         -0.99396       -2.04324       -1.77315
H          0.32039       -2.58833       -2.85874
H         -0.04077       -0.85386       -2.66961
