40
Styrene_H13_Int2_Sub21.log	Energy: -634961.8401787
C          0.36539       -0.72793       -0.72521
C         -0.96657       -0.46965       -0.39558
C          0.68190       -1.86583       -1.48571
C         -2.00054       -1.33774       -0.79276
H         -1.20505        0.44044        0.15990
C         -0.33505       -2.72536       -1.89737
H          1.71870       -2.07591       -1.76178
C         -3.40925       -1.10222       -0.45788
C         -1.65860       -2.46881       -1.54902
H         -0.09206       -3.60629       -2.49754
C         -3.91634       -0.08145        0.24764
H         -4.10722       -1.85750       -0.84029
H         -2.44873       -3.15216       -1.87176
H         -3.24507        0.69267        0.64260
C         -5.37059        0.11143        0.55494
O          3.05131       -0.96598        0.34494
C          2.79815       -1.88162        1.12740
O          1.60210       -2.13279        1.58344
C          3.85795       -2.80510        1.61967
H          4.84399       -2.44980        1.30394
H          3.80293       -2.88156        2.71451
H          3.67048       -3.80997        1.21205
H          0.95650       -1.55898        1.10395
Pd         1.73226        0.55133       -0.16142
O          2.69396        2.53015        0.26040
C          1.61086        3.02541       -0.12181
O          0.65713        2.24814       -0.47854
C          1.39795        4.50445       -0.20578
H          1.51268        4.81869       -1.25454
H          0.37735        4.76029        0.10827
H          2.13988        5.03089        0.40642
H         -5.92598       -0.73023        0.10445
C         -5.61166        0.09038        2.06500
H         -6.68061        0.22144        2.29602
H         -5.27741       -0.85870        2.50990
H         -5.06109        0.90654        2.56150
C         -5.88522        1.41127       -0.06512
H         -5.74775        1.41481       -1.15655
H         -6.95649        1.55313        0.14821
H         -5.34545        2.28147        0.34354
