31
Styrene_H13_Int2_Sub2.log	Energy: -849330.9653593
C          0.77756       -0.14566       -0.29730
C          1.52522       -1.13802        0.34487
C          1.44908        0.68074       -1.21339
C          2.90084       -1.31496        0.11324
H          1.00869       -1.80723        1.03718
C          2.80925        0.52666       -1.47221
Cl         0.58832        1.93986       -2.05212
C          3.69459       -2.35028        0.78543
C          3.52571       -0.46226       -0.80728
H          3.29658        1.18337       -2.19511
C          3.26040       -3.25743        1.66821
H          4.75619       -2.35972        0.51287
H          4.59344       -0.57904       -1.00991
H          2.21592       -3.31523        1.98612
H          3.94724       -3.98596        2.10434
O         -1.12031        1.91684        0.68699
C         -0.25432        2.54771        1.28817
O          0.91234        2.06063        1.60977
C         -0.46545        3.96859        1.68117
H         -1.53582        4.19973        1.69270
H         -0.00028        4.17432        2.65351
H          0.03010        4.60168        0.92824
H          1.01089        1.16423        1.20844
Pd        -1.15106       -0.04805        0.05407
O         -3.25085       -0.72238        0.20911
C         -2.83187       -1.82847       -0.20368
O         -1.58108       -1.96897       -0.43927
C         -3.74814       -2.98190       -0.45864
H         -3.94538       -3.04346       -1.53989
H         -3.26976       -3.92181       -0.15308
H         -4.69832       -2.83559        0.06878
