34
Styrene_H13_Int2_Sub6.log	Energy: -585660.6793405
C         -0.73031       -0.21761        0.49916
C         -1.52012       -0.99147       -0.35281
C         -1.27868        0.31093        1.69053
C         -2.87684       -1.25149       -0.07399
H         -1.06901       -1.41481       -1.25410
C         -2.62302        0.04610        1.96455
C         -0.44251        1.11394        2.64352
C         -3.73142       -2.05669       -0.95364
C         -3.41105       -0.71135        1.10050
H         -3.06467        0.44403        2.88290
C         -3.37609       -2.67201       -2.08787
H         -4.77058       -2.15041       -0.61740
H         -4.46095       -0.89381        1.34487
H         -2.35781       -2.63133       -2.48401
H         -4.10335       -3.24986       -2.66231
O          0.77940        2.11328       -0.39943
C         -0.18835        2.67964       -0.90606
O         -1.33465        2.10734       -1.14000
C         -0.12537        4.11687       -1.29847
H          0.88515        4.50708       -1.14128
H         -0.42108        4.22203       -2.35202
H         -0.85127        4.68586       -0.69882
H         -1.32923        1.18182       -0.78510
Pd         1.13280        0.10948       -0.00024
O          3.29205       -0.31640       -0.41739
C          3.02105       -1.48986       -0.07795
O          1.82298       -1.78388        0.26538
C          4.05907       -2.56766       -0.03713
H          4.29459       -2.79661        1.01324
H          3.66547       -3.48616       -0.49343
H          4.97044       -2.23866       -0.55006
H          0.40491        0.51567        3.01460
H         -1.03095        1.45096        3.50862
H         -0.00700        1.99971        2.15481
