34
Styrene_H9_Int2_Sub22.log	Energy: -585659.4080038
C          0.76644       -0.52703       -0.02172
C          1.72434       -0.17790        0.96009
C          1.15385       -1.38592       -1.06141
C          1.46009        0.68351        2.12248
C          3.03493       -0.67283        0.82190
C          2.45528       -1.87176       -1.16251
H          0.41502       -1.68344       -1.81038
C          0.28048        0.95283        2.69520
H          2.36116        1.10932        2.58031
C          3.42406       -1.51679       -0.21677
H          3.77565       -0.38530        1.57506
H          2.72105       -2.53339       -1.99211
H         -0.65621        0.52393        2.32319
H          0.22085        1.60405        3.57071
C          4.82574       -2.04530       -0.31107
O         -0.65455        2.08504       -0.20903
C          0.29904        2.66806       -0.71944
O          1.34581        2.06661       -1.20993
C          0.34285        4.15583       -0.80158
H         -0.64977        4.57317       -0.60344
H          1.05264        4.52312       -0.04425
H          0.71594        4.47046       -1.78523
H          1.28235        1.09743       -1.01738
Pd        -1.10220        0.06852       -0.06646
O         -3.32856       -0.10104       -0.12518
C         -3.13904       -1.33620       -0.05324
O         -1.94099       -1.78484       -0.00576
C         -4.27198       -2.31230        0.00722
H         -4.38349       -2.66259        1.04475
H         -5.20493       -1.83265       -0.31178
H         -4.04983       -3.18892       -0.61593
H          4.86058       -3.11810       -0.05973
H          5.50254       -1.52093        0.37809
H          5.22717       -1.93965       -1.33058
