40
Thiophene_H6_Int2_Sub19.log	Energy: -860879.9048914
C         -0.39589       -0.30383        0.56469
C          0.01257       -0.60648        1.84683
S          0.98274       -0.19901       -0.48548
C          1.42953       -0.74046        1.97201
H         -0.68632       -0.74591        2.67390
C          2.10640       -0.54718        0.79578
H          1.93777       -0.97502        2.90958
C          3.58072       -0.60069        0.54563
O         -1.73415        1.93609       -0.62961
C         -1.08118        2.76804        0.00433
O         -0.41046        2.50602        1.08577
C         -0.99873        4.18415       -0.45391
H          0.00424        4.35395       -0.87503
H         -1.75652        4.37870       -1.21978
H         -1.11641        4.86341        0.40096
H         -0.40091        1.52082        1.24390
Pd        -2.19074       -0.00911       -0.13361
O         -4.28125       -0.34777       -0.71028
C         -4.12401       -1.51370       -0.27459
O         -2.99253       -1.83608        0.22680
C         -5.20483       -2.54308       -0.34938
H         -5.00130       -3.20735       -1.20326
H         -5.20572       -3.15892        0.55963
H         -6.17830       -2.06056       -0.49754
H          4.04572       -0.84975        1.51744
C          4.14555        0.75330        0.09412
H          3.88745        1.52500        0.83700
H          3.64389        1.04743       -0.84590
C          5.65206        0.69312       -0.12845
H          6.02193        1.66996       -0.47999
H          6.15335        0.50256        0.83802
C          6.02901       -0.40743       -1.11419
H          7.12342       -0.45978       -1.23239
H          5.62018       -0.15677       -2.10994
C          5.47541       -1.75795       -0.67312
H          5.96893       -2.06307        0.26765
H          5.71864       -2.53573       -1.41487
C          3.96865       -1.70103       -0.45123
H          3.46011       -1.50178       -1.41212
H          3.58563       -2.67062       -0.09577
