36
Thiophene_H6_Int2_Sub20.log	Energy: -812329.6338146
C          0.16146       -0.35194        0.36774
C          0.72791       -0.74157        1.56259
S          1.39189       -0.20583       -0.84640
C          2.14572       -0.90977        1.49036
H          0.14270       -0.92053        2.46678
C          2.66964       -0.65540        0.24878
H          2.75334       -1.21322        2.34323
C          4.10408       -0.71960       -0.22773
O         -1.26600        2.00128       -0.44922
C         -0.50732        2.76793        0.14822
O          0.30653        2.40738        1.09450
C         -0.45770        4.21687       -0.19908
H          0.48334        4.41328       -0.73561
H         -1.30728        4.48245       -0.83646
H         -0.44652        4.82223        0.71724
H          0.31203        1.41246        1.17343
Pd        -1.69958        0.02577       -0.06693
O         -3.85307       -0.23363       -0.39999
C         -3.67008       -1.43600       -0.09203
O         -2.49253       -1.81620        0.23112
C         -4.77574       -2.44102       -0.11907
H         -4.69691       -3.02775       -1.04714
H         -4.67693       -3.13652        0.72479
H         -5.74843       -1.93517       -0.09899
C          5.01699       -1.13733        0.92565
H          6.06070       -1.18393        0.57914
H          4.96937       -0.41783        1.75707
H          4.74548       -2.13103        1.31261
C          4.22340       -1.74598       -1.36339
H          3.58688       -1.47125       -2.21850
H          5.26406       -1.80720       -1.71953
H          3.91333       -2.74512       -1.02233
C          4.53684        0.66244       -0.73845
H          5.58331        0.63697       -1.08169
H          3.91065        0.98910       -1.58299
H          4.45090        1.41831        0.05702
