29
Thiophene_H6_Int2_Sub23.log	Energy: -773085.6541104
C          0.58479       -0.44936        0.42500
C          1.06288       -0.98806        1.59910
S          1.86723       -0.41392       -0.76465
C          2.44474       -1.33578        1.57066
H          0.42741       -1.13830        2.47443
C          3.03255       -1.07917        0.34968
H          2.99016       -1.75080        2.41955
N          4.33972       -1.25903       -0.02396
O         -0.60703        2.00910       -0.48452
C          0.18097        2.70107        0.16698
O          0.90890        2.25566        1.14308
C          0.36634        4.14649       -0.15011
H          1.34818        4.27432       -0.63119
H         -0.42319        4.49047       -0.82616
H          0.37572        4.73465        0.77740
H          0.82327        1.25361        1.18317
Pd        -1.22358        0.08701       -0.08655
O         -3.38026        0.00809       -0.49098
C         -3.31385       -1.19740       -0.14956
O         -2.18691       -1.67141        0.22385
C         -4.50341       -2.10178       -0.19383
H         -4.44596       -2.71680       -1.10500
H         -4.49551       -2.78140        0.66853
H         -5.42747       -1.51194       -0.21997
H          4.84657       -1.92187        0.54841
C          4.73843       -1.17760       -1.40155
H          5.82509       -1.31858       -1.47668
H          4.50794       -0.17801       -1.80597
H          4.24077       -1.92386       -2.05255
