33
Thiophene_H6_Int2_Sub21.log	Energy: -787679.7641137
C          0.34973       -0.41144        0.42907
C          0.84477       -0.81244        1.65220
S          1.63182       -0.36453       -0.74103
C          2.25062       -1.06828        1.63668
H          0.21427       -0.93721        2.53473
C          2.83244       -0.87020        0.41175
H          2.81899       -1.39264        2.51093
C          4.27215       -1.03931        0.02079
O         -0.90386        1.99318       -0.51689
C         -0.12943        2.73407        0.09278
O          0.61810        2.35722        1.08634
C          0.02088        4.16594       -0.29376
H          0.99466        4.29076       -0.79190
H         -0.78253        4.45964       -0.97703
H          0.02712        4.79833        0.60416
H          0.56205        1.36652        1.19169
Pd        -1.46933        0.06193       -0.08416
O         -3.62207       -0.07988       -0.48390
C         -3.52359       -1.27887       -0.12778
O         -2.38301       -1.71685        0.25014
C         -4.68729       -2.21591       -0.15916
H         -4.61365       -2.84011       -1.06290
H         -4.65956       -2.88453        0.71133
H         -5.62724       -1.65211       -0.19129
H          4.79153       -1.35968        0.94073
C          4.45030       -2.13548       -1.03012
H          5.51630       -2.28891       -1.25953
H          4.02841       -3.09017       -0.68373
H          3.93917       -1.86531       -1.96823
C          4.89332        0.28042       -0.43827
H          4.78567        1.05925        0.33113
H          5.96508        0.15476       -0.65747
H          4.40325        0.64475       -1.35570
