42
Toluene_H10_Int2_Sub178.log	Energy: -635730.3564157
C          0.14828       -0.10404       -0.16781
C          0.80811       -0.69057        0.93391
C          0.90620        0.32874       -1.26063
C          2.20137       -0.80346        0.89190
C          0.03876       -1.19079        2.12348
C          2.29550        0.19251       -1.27873
H          0.40751        0.78480       -2.12099
C          2.97350       -0.37511       -0.19682
H          2.69776       -1.25543        1.75571
H          0.70626       -1.63770        2.87369
H         -0.52300       -0.37575        2.60842
H         -0.70237       -1.94162        1.80991
H          2.84260        0.54112       -2.15546
C          4.49420       -0.54068       -0.16013
O         -1.76999        2.10231       -0.31051
C         -1.03303        2.90867        0.25559
O          0.06080        2.58256        0.88368
C         -1.33901        4.36802        0.26011
H         -2.32051        4.54936       -0.18934
H         -1.30806        4.74696        1.29141
H         -0.55909        4.89940       -0.30553
H          0.24634        1.61984        0.72859
Pd        -1.80460        0.03421       -0.22286
O         -3.94847       -0.62610       -0.27244
C         -3.49043       -1.78686       -0.18251
O         -2.22365       -1.95991       -0.11775
C         -4.38931       -2.98375       -0.13634
H         -4.98919       -2.94534        0.78500
H         -5.08876       -2.94578       -0.98317
H         -3.80911       -3.91361       -0.16169
C          5.15919       -0.01951       -1.43458
H          6.24916       -0.15773       -1.36870
H          4.80954       -0.55945       -2.32768
H          4.96948        1.05429       -1.58509
C          5.05959        0.24059        1.03490
H          4.64727       -0.11854        1.98938
H          6.15517        0.13330        1.08153
H          4.82357        1.31255        0.94979
C          4.83723       -2.02999       -0.01013
H          5.92945       -2.17212        0.01880
H          4.41976       -2.45435        0.91482
H          4.43738       -2.61121       -0.85500
