33
Toluene_H10_Int2_Sub154.log	Energy: -655398.3529026
C          0.42783       -0.17140       -0.16124
C          1.05035       -0.80883        0.93614
C          1.19928        0.25972       -1.25121
C          2.43691       -0.98029        0.90034
C          0.25063       -1.30054        2.10903
C          2.57745        0.06825       -1.27432
H          0.71325        0.75281       -2.09769
C          3.20167       -0.55160       -0.18797
H          2.95561       -1.46401        1.73202
H          0.89544       -1.78366        2.85590
H         -0.28650       -0.47471        2.60333
H         -0.51341       -2.01851        1.77470
H          3.17314        0.39927       -2.12639
C          4.66694       -0.77686       -0.13894
O         -1.37454        2.12483       -0.28756
C         -0.62731        2.88869        0.32211
O          0.41033        2.49965        1.00917
C         -0.84900        4.36220        0.31666
H         -1.79610        4.59940       -0.17820
H         -0.84401        4.73916        1.34906
H         -0.01411        4.84717       -0.21111
H          0.55056        1.53204        0.86439
Pd        -1.51248        0.06179       -0.21760
O         -3.67746       -0.47618       -0.28797
C         -3.28897       -1.66337       -0.21935
O         -2.03269       -1.90623       -0.14455
C         -4.23967       -2.81801       -0.24124
H         -3.96971       -3.54130        0.54036
H         -5.26924       -2.46661       -0.10616
H         -4.15352       -3.33296       -1.20999
O          5.25211       -1.29795        0.77802
O          5.30401       -0.33680       -1.23502
H          6.24183       -0.53675       -1.09713
