30
Toluene_H10_Int2_Sub158.log	Energy: -537130.2520948
C          0.88206       -0.77029       -0.27254
C          1.19362       -1.66258        0.77607
C          1.70523       -0.71037       -1.40621
C          2.33832       -2.46252        0.64868
C          0.32144       -1.76578        1.99508
C          2.83281       -1.52413       -1.51595
H          1.46131       -0.01718       -2.21655
C          3.15064       -2.40082       -0.48119
H          2.58953       -3.15404        1.45830
H          0.70026       -2.52397        2.69476
H          0.26571       -0.80427        2.53119
H         -0.70818       -2.02650        1.70655
H          3.46110       -1.46967       -2.40857
H          4.03393       -3.04002       -0.55212
O          0.33680        2.10390       -0.24779
C          1.39321        2.40270        0.30752
O          2.18377        1.54216        0.88421
C          1.87067        3.81408        0.35886
H          1.10753        4.48569       -0.04705
H          2.11245        4.08293        1.39683
H          2.79973        3.89935       -0.22438
H          1.85300        0.62580        0.70001
Pd        -0.73498        0.33358       -0.20603
O         -2.91473        0.84715       -0.14491
C         -3.10577       -0.38895       -0.11030
O         -2.09962       -1.18042       -0.12476
C         -4.48452       -0.96869       -0.04065
H         -4.94720       -0.67773        0.91405
H         -5.09938       -0.54137       -0.84509
H         -4.45687       -2.06171       -0.12080
