30
Toluene_H10_Int2_Sub115.log	Energy: -723579.2289717
C         -0.24472       -0.40383        0.52868
C         -0.21907       -1.05967        1.77816
C          0.94484       -0.19755       -0.18494
C          1.02039       -1.48496        2.27476
C         -1.47925       -1.30617        2.55707
C          2.15866       -0.64065        0.33952
H          0.92329        0.31283       -1.15074
C          2.20680       -1.28593        1.57274
H          1.05744       -1.99257        3.24305
H         -1.27228       -1.84596        3.49155
H         -1.98318       -0.36018        2.81392
H         -2.19227       -1.88953        1.95528
I          3.93725       -0.31712       -0.74103
H          3.15622       -1.62933        1.98655
O         -1.32950        2.14721       -0.38219
C         -0.72267        2.82589        0.44586
O         -0.15342        2.33602        1.51147
C         -0.57326        4.29924        0.28349
H         -1.21594        4.65673       -0.52736
H         -0.81538        4.80437        1.22861
H          0.47951        4.52321        0.05299
H         -0.18579        1.34862        1.46628
Pd        -1.93345        0.17236       -0.28406
O         -3.97435        0.04810       -1.16365
C         -3.91201       -1.17566       -0.90690
O         -2.85884       -1.64206       -0.34753
C         -5.03976       -2.10506       -1.22746
H         -5.91832       -1.82193       -0.62912
H         -5.31445       -1.99064       -2.28543
H         -4.76534       -3.14494       -1.01504
