31
Toluene_H10_Int2_Sub151.log	Energy: -594973.5687749
C          0.71642       -0.25325       -0.18402
C          1.31331       -0.95802        0.88577
C          1.49924        0.15061       -1.27619
C          2.68392       -1.22530        0.82546
C          0.50326       -1.42282        2.06224
C          2.85957       -0.13075       -1.33180
H          1.03584        0.69546       -2.10327
C          3.45942       -0.82075       -0.26999
H          3.16417       -1.76471        1.64527
H          1.12605       -1.95946        2.79099
H          0.02582       -0.57457        2.57880
H         -0.30867       -2.08498        1.72599
H          3.46066        0.18177       -2.18769
C          4.86175       -1.10752       -0.29775
O         -0.95564        2.14344       -0.31717
C         -0.17177        2.86785        0.29523
O          0.82760        2.42018        1.00375
C         -0.29925        4.35151        0.26934
H         -1.21555        4.64246       -0.25392
H         -0.29946        4.73831        1.29820
H          0.57939        4.77738       -0.23795
H          0.90392        1.44513        0.86877
Pd        -1.20983        0.09450       -0.21538
O         -3.39366       -0.30413       -0.25944
C         -3.08493       -1.51503       -0.17970
O         -1.84636       -1.83680       -0.11912
C         -4.12147       -2.59208       -0.14205
H         -4.71396       -2.48625        0.77875
H         -4.80919       -2.46382       -0.98959
H         -3.65833       -3.58519       -0.17285
N          5.99845       -1.33669       -0.31962
