33
Toluene_H10_Int2_Sub12.log	Energy: -1138423.1769884
C         -0.22246       -0.80891       -0.63443
C          0.01094       -1.52082       -1.83386
C         -1.42260       -1.01324        0.06796
C         -0.97515       -2.39825       -2.29821
C          1.29744       -1.35271       -2.59257
C         -2.38943       -1.90266       -0.41454
C         -1.68279       -0.25542        1.33649
C         -2.16630       -2.58984       -1.59852
H         -0.79825       -2.94728       -3.22735
H          1.31626       -1.98559       -3.49075
H          1.44567       -0.30732       -2.90889
H          2.15435       -1.61526       -1.95348
H         -3.31146       -2.04828        0.15323
H         -2.91928       -3.28269       -1.98048
O          0.02646        2.08715       -0.21064
C         -0.83205        2.37575       -1.04617
O         -1.27038        1.55320       -1.95464
C         -1.46797        3.72092       -1.05692
H         -0.80591        4.45538       -0.58574
H         -1.73721        4.01644       -2.07831
H         -2.39357        3.64468       -0.46457
H         -0.91332        0.64846       -1.77692
Pd         1.17782        0.39726        0.04273
O          3.13861        1.03791        0.87694
C          3.43585       -0.17822        0.86487
O          2.57426       -1.02478        0.43779
C          4.77236       -0.66777        1.32396
H          5.54702       -0.28247        0.64453
H          4.98347       -0.26314        2.32364
H          4.80545       -1.76340        1.34012
Cl        -3.00554        0.94806        1.10255
Cl        -2.09147       -1.33306        2.69101
H         -0.80280        0.32091        1.64494
