33
Toluene_H10_Int2_Sub72.log	Energy: -561780.2743634
C          0.84751       -0.71642       -0.47710
C          1.17696       -1.70709        0.47289
C          1.66511       -0.53041       -1.60238
C          2.33797       -2.46632        0.26285
C          0.32792       -1.95395        1.69498
C          2.80656       -1.30753       -1.79647
H          1.40479        0.23446       -2.33994
C          3.14615       -2.27672       -0.85504
H          2.60203       -3.23334        0.99718
H          0.60952       -2.92810        2.12515
C          0.45803       -0.87303        2.76439
H         -0.72479       -2.03200        1.38066
H          3.42800       -1.15348       -2.68225
H          4.04034       -2.88947       -0.99201
O          0.31028        2.14777       -0.25759
C          1.37829        2.42083        0.28817
O          2.18645        1.53399        0.79769
C          1.85031        3.82957        0.41105
H          1.08834        4.51764        0.03148
H          2.07804        4.04771        1.46423
H          2.78616        3.94687       -0.15515
H          1.85118        0.62816        0.58072
Pd        -0.76799        0.37795       -0.30537
O         -2.94738        0.89727       -0.16849
C         -3.14373       -0.33663       -0.21581
O         -2.14062       -1.13009       -0.29700
C         -4.51835       -0.92855       -0.19532
H         -4.56786       -1.72931        0.55569
H         -5.26449       -0.15410        0.01703
H         -4.72772       -1.38480       -1.17439
H          1.50354       -0.74705        3.08791
H         -0.14389       -1.12155        3.65175
H          0.09836        0.09866        2.38859
