39
Toluene_H10_Int2_Sub69.log	Energy: -611081.3282859
C          0.79341       -0.16579       -1.02542
C          1.16981       -1.47705       -0.65993
C          1.57146        0.55135       -1.94684
C          2.33642       -2.01267       -1.22527
C          0.35004       -2.29092        0.30592
C          2.72025       -0.00847       -2.50581
H          1.27453        1.56473       -2.23283
C          3.10613       -1.29523       -2.13759
H          2.63637       -3.02613       -0.94280
H          0.67598       -3.34397        0.25888
C          0.41964       -1.82024        1.76615
H         -0.70047       -2.26034       -0.02269
H          3.31083        0.56262       -3.22662
H          4.00687       -1.74397       -2.56312
O          0.19972        2.27686        0.47672
C          1.27857        2.31428        1.06623
O          2.12589        1.32403        1.09929
C          1.71856        3.52981        1.80832
H          0.92898        4.28774        1.79361
H          1.96982        3.25387        2.84249
H          2.63510        3.92388        1.34498
H          1.80418        0.60574        0.49840
Pd        -0.83641        0.66933       -0.32491
O         -3.01237        0.99023        0.11267
C         -3.19283       -0.09964       -0.47295
O         -2.18375       -0.73464       -0.94295
C         -4.55473       -0.69223       -0.65790
H         -4.55269       -1.73935       -0.32395
H         -5.30206       -0.11305       -0.10329
H         -4.80542       -0.69142       -1.72914
H          0.14933       -0.74611        1.77098
C         -0.61755       -2.55082        2.60810
H         -0.59899       -2.20957        3.65483
H         -1.63232       -2.38531        2.21449
H         -0.43026       -3.63773        2.60791
C          1.81917       -1.96671        2.34854
H          2.57481       -1.43831        1.74701
H          1.86970       -1.56966        3.37426
H          2.11468       -3.02888        2.38719
