31
Toluene_H10_Int2_Sub106.log	Energy: -594973.6587673
C          0.67941       -0.58297        0.15674
C          0.86559       -1.42904        1.27367
C          1.72616       -0.39138       -0.74965
C          2.11110       -2.05215        1.44071
C         -0.23897       -1.66751        2.26064
C          2.96348       -1.02896       -0.56703
H          1.59415        0.26192       -1.61577
C          3.15221       -1.86533        0.54065
H          2.26257       -2.70568        2.30396
H          0.07853       -2.34826        3.06228
H         -0.57139       -0.72348        2.72198
H         -1.11721       -2.09206        1.75119
C          4.02530       -0.80993       -1.50177
H          4.11297       -2.36063        0.69054
O         -0.24965        2.15981       -0.25282
C          0.57495        2.67599        0.50107
O          1.25969        2.01018        1.38955
C          0.87563        4.13326        0.44633
H          0.14466        4.64579       -0.18710
H          0.87810        4.55169        1.46214
H          1.88731        4.26860        0.03399
H          1.09187        1.04583        1.25952
Pd        -1.05474        0.25775       -0.21354
O         -3.22037        0.45353       -0.65394
C         -3.26595       -0.79274       -0.54894
O         -2.19114       -1.43076       -0.26344
C         -4.52481       -1.56813       -0.76871
H         -5.39161       -0.89697       -0.75937
H         -4.46620       -2.07007       -1.74648
H         -4.62647       -2.34842       -0.00242
N          4.88401       -0.62194       -2.25843
