30
Toluene_H10_Int2_Sub105.log	Energy: -825452.9282578
C          0.61551       -0.52850        0.19893
C          0.82232       -1.26401        1.38591
C          1.65748       -0.37405       -0.72494
C          2.09065       -1.81933        1.60483
C         -0.28153       -1.46052        2.38566
C          2.90297       -0.94887       -0.47619
H          1.51047        0.19453       -1.64610
C          3.13013       -1.67315        0.69098
H          2.26747       -2.38951        2.52129
H          0.05357       -2.07081        3.23587
H         -0.64349       -0.49685        2.77965
H         -1.14459       -1.95089        1.91056
Cl         4.18415       -0.74925       -1.62906
H          4.11053       -2.11372        0.87770
O         -0.39895        2.16132       -0.30479
C          0.41356        2.72187        0.43000
O          1.13870        2.10351        1.31948
C          0.64910        4.19092        0.34942
H         -0.10018        4.65834       -0.29739
H          0.62351        4.62695        1.35764
H          1.65697        4.36571       -0.05684
H          1.01390        1.12771        1.21381
Pd        -1.13932        0.23258       -0.22810
O         -3.31515        0.32435       -0.69578
C         -3.30843       -0.91739       -0.53657
O         -2.21107       -1.50077       -0.22856
C         -4.55190       -1.73610       -0.68597
H         -5.26728       -1.44662        0.09797
H         -5.02015       -1.51175       -1.65456
H         -4.32989       -2.80683       -0.60812
