30
Toluene_H10_Int2_Sub25.log	Energy: -723580.5393433
C         -0.25221        1.13200        0.00314
C         -0.04605        2.47590        0.39666
C         -1.42917        0.81714       -0.68603
C         -1.02499        3.43135        0.10001
C          1.21614        2.87278        1.10752
C         -2.40096        1.77304       -0.98674
I         -1.77363       -1.17468       -1.31006
C         -2.18938        3.08757       -0.58292
H         -0.86323        4.46786        0.40790
H          1.22522        3.94769        1.33626
H          1.33488        2.31880        2.05255
H          2.09279        2.63287        0.48616
H         -3.30619        1.49213       -1.52773
H         -2.94005        3.84924       -0.80635
O          0.15284       -1.22724        1.79923
C         -0.78325       -0.92857        2.53710
O         -1.42616        0.20388        2.48021
C         -1.28616       -1.87635        3.57136
H         -0.55948       -2.67959        3.73098
H         -1.49965       -1.34144        4.50617
H         -2.23325       -2.30703        3.21074
H         -1.09590        0.72870        1.70898
Pd         1.16194       -0.19615        0.31417
O          3.11343       -1.22159        0.06874
C          3.36616       -0.34467       -0.78835
O          2.49608        0.56591       -1.02254
C          4.64114       -0.33784       -1.56978
H          5.38421       -0.98688       -1.09150
H          4.43607       -0.71148       -2.58462
H          5.02075        0.68832       -1.66492
