30
Toluene_H10_Int2_Sub23.log	Energy: -537130.2520628
C          0.88198       -0.77038       -0.27243
C          1.19330       -1.66281        0.77612
C          1.70508       -0.71066       -1.40614
C          2.33779       -2.46306        0.64862
C          0.32107       -1.76595        1.99509
C          2.83244       -1.52473       -1.51596
H          1.46128       -0.01738       -2.21645
C          3.15013       -2.40156       -0.48125
H          2.58883       -3.15469        1.45819
H          0.70004       -2.52389        2.69497
H          0.26501       -0.80434        2.53098
H         -0.70846       -2.02698        1.70654
H          3.46070       -1.47041       -2.40860
H          4.03324       -3.04100       -0.55224
O          0.33705        2.10411       -0.24782
C          1.39352        2.40284        0.30743
O          2.18404        1.54225        0.88410
C          1.87106        3.81419        0.35876
H          1.10826        4.48577       -0.04783
H          2.11206        4.08325        1.39687
H          2.80059        3.89927       -0.22376
H          1.85324        0.62592        0.69990
Pd        -0.73484        0.33379       -0.20595
O         -2.91495        0.84737       -0.14498
C         -3.10575       -0.38874       -0.11048
O         -2.09946       -1.18009       -0.12453
C         -4.48439       -0.96877       -0.04085
H         -4.94762       -0.67694        0.91331
H         -5.09896       -0.54244       -0.84604
H         -4.45643       -2.06186       -0.11991
