33
Toluene_H10_Int2_Sub31.log	Energy: -618987.5437478
C         -0.79231       -0.80734       -0.03727
C         -1.11175       -1.55977       -1.18674
C         -1.52364       -1.01851        1.15141
C         -2.14347       -2.50491       -1.13527
C         -0.32534       -1.37266       -2.45361
C         -2.55771       -1.96666        1.17691
N         -1.20217       -0.35905        2.34498
C         -2.85480       -2.71138        0.04380
H         -2.38291       -3.08530       -2.02978
H         -0.71369       -2.00439       -3.26495
H         -0.35093       -0.32420       -2.79159
H          0.73317       -1.62823       -2.28685
H         -3.12738       -2.11333        2.09951
H         -3.66133       -3.44771        0.07591
O         -0.12299        2.11812       -0.38227
C         -1.30418        2.41029       -0.56919
O         -2.26116        1.54268       -0.70066
C         -1.73706        3.83517       -0.64448
H         -0.87330        4.48427       -0.82289
H         -2.49983        3.96394       -1.42325
H         -2.19606        4.10036        0.32082
H         -1.89814        0.62856       -0.54117
Pd         0.83164        0.31594       -0.07520
O          3.01134        0.77930        0.00997
C          3.16981       -0.45519        0.14877
O          2.14277       -1.21857        0.17342
C          4.52400       -1.07395        0.29880
H          4.63640       -1.89707       -0.42077
H          5.30682       -0.32173        0.14733
H          4.61369       -1.50665        1.30628
H         -1.93206       -0.46622        3.04381
O         -0.96361        1.00984        2.21781
H         -0.00666        1.09642        2.32705
