32
Toluene_H10_Int2_Sub141.log	Energy: -584874.8523744
C          0.70170       -0.25091       -0.18775
C          1.30363       -0.93027        0.89451
C          1.48357        0.13005       -1.28842
C          2.67556       -1.19292        0.83767
C          0.49597       -1.37316        2.08151
C          2.84510       -0.14840       -1.33619
H          1.01859        0.65545       -2.12744
C          3.45922       -0.81343       -0.26359
H          3.15625       -1.71307        1.66986
H          1.12102       -1.89647        2.81825
H          0.02008       -0.51552        2.58416
H         -0.31695       -2.04176        1.76030
H          3.44325        0.14848       -2.19992
C          4.85903       -1.09751       -0.28732
O         -0.97008        2.14507       -0.30687
C         -0.16580        2.86550        0.28328
O          0.86124        2.41773        0.94917
C         -0.30125        4.34959        0.27606
H         -1.23905        4.64065       -0.20764
H         -0.26228        4.72733        1.30752
H          0.55426        4.78433       -0.26222
H          0.94052        1.44213        0.80060
Pd        -1.22514        0.09417       -0.21807
O         -3.41851       -0.31907       -0.25271
C         -3.09744       -1.52629       -0.17394
O         -1.85744       -1.84107       -0.12048
C         -4.12620       -2.61221       -0.12847
H         -4.71022       -2.51298        0.79850
H         -4.82340       -2.48764       -0.96877
H         -3.65598       -3.60183       -0.16564
C          6.04830       -1.33818       -0.30780
H          7.10048       -1.55318       -0.32646
