36
Toluene_H10_Int2_Sub153.log	Energy: -680036.3567070
C          0.14228       -0.14581       -0.10001
C          0.73120       -0.75284        1.03219
C          0.95066        0.28985       -1.16107
C          2.12206       -0.88985        1.05947
C         -0.10704       -1.24944        2.17585
C          2.33278        0.13259       -1.12092
H          0.49059        0.75954       -2.03497
C          2.92399       -0.45694        0.00015
H          2.61509       -1.34938        1.91999
H          0.51609       -1.70659        2.95672
H         -0.68555       -0.43121        2.63487
H         -0.83776       -1.99073        1.81861
H          2.95862        0.46655       -1.94972
C          4.39196       -0.64684        0.11978
O         -1.70699        2.10394       -0.32838
C         -1.00252        2.89126        0.30201
O          0.01668        2.53451        1.03256
C         -1.25957        4.35888        0.27295
H         -2.19182        4.56813       -0.26116
H         -1.30470        4.74524        1.30090
H         -0.41646        4.85952       -0.22636
H          0.18651        1.56901        0.90317
Pd        -1.79885        0.03875       -0.24359
O         -3.94641       -0.55517       -0.40108
C         -3.53104       -1.73101       -0.30264
O         -2.27353       -1.94112       -0.17169
C         -4.45044       -2.91016       -0.35135
H         -4.20072       -3.61379        0.45461
H         -5.49388       -2.58363       -0.27186
H         -4.30385       -3.43823       -1.30564
O          4.94409       -1.14038        1.07190
O          5.05516       -0.20578       -0.95754
C          6.46083       -0.35944       -0.91826
H          6.84244        0.04430       -1.86334
H          6.73716       -1.41964       -0.81805
H          6.89247        0.18893       -0.06765
