30
Toluene_H10_Int2_Sub140.log	Energy: -2151879.3466567
C          0.13553       -0.09714       -0.14451
C          0.78619       -0.70935        0.94881
C          0.89502        0.36517       -1.22830
C          2.18241       -0.82670        0.92243
C          0.01034       -1.23756        2.12175
C          2.28280        0.23503       -1.25324
H          0.39637        0.83925       -2.07864
C          2.91569       -0.36118       -0.16612
H          2.70116       -1.29347        1.76270
H          0.67375       -1.69434        2.86901
H         -0.56091       -0.43497        2.61573
H         -0.72246       -1.98635        1.78516
H          2.86420        0.59405       -2.10415
Br         4.79623       -0.53873       -0.16249
O         -1.80148        2.09040       -0.33193
C         -1.10088        2.90275        0.27133
O         -0.04625        2.57947        0.96534
C         -1.40668        4.36101        0.24822
H         -2.35932        4.53906       -0.26062
H         -1.43765        4.74627        1.27718
H         -0.59380        4.88899       -0.27247
H          0.14653        1.61817        0.82454
Pd        -1.81977        0.02598       -0.22117
O         -3.94773       -0.63173       -0.29972
C         -3.49575       -1.79477       -0.19910
O         -2.22971       -1.96685       -0.11294
C         -4.39693       -2.98872       -0.16546
H         -5.01423       -2.94555        0.74406
H         -5.07983       -2.95263       -1.02574
H         -3.81780       -3.91947       -0.17638
