40
Toluene_H10_Int2_Sub172.log	Energy: -682010.6910169
C         -0.24063       -0.08413       -0.14719
C          0.42789       -0.61155        0.97852
C          0.50850        0.34714       -1.25081
C          1.82589       -0.67213        0.95667
C         -0.33554       -1.11550        2.17037
C          1.89820        0.26570       -1.25370
H         -0.00220        0.76496       -2.12323
C          2.58234       -0.24353       -0.14214
H          2.34189       -1.09959        1.82101
H          0.34050       -1.51205        2.94072
H         -0.94030       -0.31430        2.62562
H         -1.03761       -1.90676        1.86684
H          2.45949        0.62913       -2.11783
C          4.05946       -0.32437       -0.12540
O         -2.23591        2.03853       -0.39701
C         -1.54743        2.89005        0.16436
O         -0.46852        2.62359        0.84459
C         -1.89915        4.33729        0.10119
H         -2.86924        4.46907       -0.38847
H         -1.91639        4.75629        1.11717
H         -1.11657        4.87160       -0.45803
H         -0.24604        1.66368        0.73283
Pd        -2.19630       -0.02337       -0.22782
O         -4.30984       -0.75728       -0.27999
C         -3.81559       -1.89872       -0.14260
O         -2.54460       -2.02536       -0.05538
C         -4.67454       -3.12245       -0.06571
H         -5.28810       -3.07212        0.84600
H         -5.36294       -3.13758       -0.92223
H         -4.06333       -4.03243       -0.05078
C          4.77508       -0.65846       -1.28498
C          4.78337       -0.06885        1.04890
C          6.87102       -0.47749       -0.09658
C          6.17340       -0.14467        1.06367
C          6.16507       -0.73407       -1.27115
H          4.22996       -0.88725       -2.20373
H          6.70107       -1.00516       -2.18402
H          7.96183       -0.53728       -0.08535
H          6.71693        0.06633        1.98790
H          4.24771        0.21707        1.95718
