30
Toluene_H10_Int2_Sub157.log	Energy: -599374.6361044
C          0.85187       -0.37240       -0.19790
C          1.37896       -1.14194        0.86340
C          1.66136       -0.07719       -1.30452
C          2.70639       -1.58122        0.78243
C          0.54023       -1.49794        2.05731
C          2.97881       -0.52667       -1.38377
H          1.25690        0.51734       -2.12866
C          3.48106       -1.27554       -0.32871
H          3.14928       -2.17507        1.58532
H          1.10464       -2.10481        2.77859
H          0.18147       -0.59401        2.57553
H         -0.35380       -2.05525        1.73910
H          3.61440       -0.30569       -2.24318
F          4.74054       -1.71013       -0.37751
O         -0.56397        2.19524       -0.29232
C          0.32351        2.81707        0.29145
O          1.30898        2.25080        0.92806
C          0.34498        4.30721        0.30875
H         -0.56559        4.70340       -0.15177
H          0.44199        4.66117        1.34483
H          1.23155        4.65913       -0.23964
H          1.27598        1.27338        0.75887
Pd        -1.03150        0.18321       -0.20965
O         -3.25506        0.00915       -0.22782
C         -3.06599       -1.22615       -0.15644
O         -1.86692       -1.67318       -0.11326
C         -4.20608       -2.19444       -0.10867
H         -4.77190       -2.03542        0.82124
H         -4.88941       -1.99257       -0.94537
H         -3.84596       -3.22903       -0.15081
