30
Toluene_H10_Int2_Sub50.log	Energy: -2151882.7394497
C          0.88309       -0.06241       -1.07113
C          1.12090       -1.43603       -0.86601
C          1.82580        0.69457       -1.77409
C          2.30398       -2.00786       -1.35253
C          0.13489       -2.29438       -0.15196
C          2.99146        0.10648       -2.26925
H          1.64861        1.75989       -1.94443
C          3.23502       -1.24799       -2.05484
H          2.48910       -3.07203       -1.17883
H          0.37987       -3.36002       -0.22250
Br         0.10329       -1.92317        1.79522
H         -0.89581       -2.10098       -0.47076
H          3.71140        0.71351       -2.82462
H          4.14758       -1.71348       -2.43386
O          0.43737        2.30524        0.38336
C          1.29637        2.18567        1.25674
O          1.57323        1.07357        1.87169
C          2.13157        3.34524        1.67894
H          1.70184        4.27730        1.29786
H          2.22426        3.36970        2.77269
H          3.14210        3.20977        1.26305
H          1.02348        0.32171        1.54477
Pd        -0.73746        0.80906       -0.40615
O         -2.89050        1.24832       -0.00632
C         -3.13188        0.19271       -0.62954
O         -2.15604       -0.48560       -1.11274
C         -4.52311       -0.31919       -0.83039
H         -4.62151       -1.30177       -0.34588
H         -5.25249        0.38091       -0.40714
H         -4.71132       -0.46361       -1.90386
