35
Toluene_H10_Int2_Sub107.log	Energy: -632855.1930437
C          0.45431       -0.49306        0.32371
C          0.59807       -1.23921        1.51386
C          1.55920       -0.30504       -0.51531
C          1.86433       -1.76164        1.82364
C         -0.56850       -1.47886        2.42659
C          2.81408       -0.84117       -0.19879
H          1.43281        0.27493       -1.43312
C          2.95458       -1.57067        0.98690
H          1.98490       -2.33638        2.74637
H         -0.28012       -2.08659        3.29529
H         -0.98785       -0.52874        2.79573
H         -1.37800       -1.98831        1.88190
C          4.01729       -0.66582       -1.06975
H          3.93870       -1.97846        1.22652
O         -0.62940        2.16728       -0.24352
C          0.10704        2.75401        0.54895
O          0.81336        2.15453        1.46581
C          0.26076        4.23587        0.51653
H         -0.43902        4.67250       -0.20307
H          0.08956        4.64494        1.52227
H          1.29598        4.48299        0.23736
H          0.74140        1.17555        1.33580
Pd        -1.29135        0.20722       -0.23152
O         -3.42906        0.21352       -0.86763
C         -3.38374       -1.02720       -0.70876
O         -2.29002       -1.56699       -0.31817
C         -4.57784       -1.89554       -0.95183
H         -5.35829       -1.64366       -0.21857
H         -4.98577       -1.68149       -1.94956
H         -4.31730       -2.95687       -0.86511
O          5.08945       -1.12499       -0.74020
C          3.86169        0.09191       -2.36565
H          3.11292       -0.38855       -3.01397
H          3.51950        1.12186       -2.18059
H          4.83050        0.11614       -2.87838
