54
Toluene_H10_Int2_Sub3.log	Energy: -781379.8397337
C          0.85481        0.86978       -0.88367
C          1.92713        1.52323       -1.53333
C         -0.48146        1.31052       -1.06781
C          1.66921        2.63530       -2.34126
C          3.34193        1.03851       -1.37014
C         -0.68345        2.43944       -1.87992
C         -1.68769        0.58798       -0.45984
C          0.36965        3.09632       -2.50595
H          2.50174        3.13917       -2.83995
H          4.04072        1.64820       -1.96084
H          3.66654        1.07385       -0.31754
H          3.43508       -0.00958       -1.69497
H         -1.69313        2.81767       -2.03396
H          0.17040        3.97137       -3.12911
O          1.76494        0.46338        1.93155
C          1.61157        1.64346        2.24035
O          1.16163        2.56009        1.43274
C          1.91628        2.12779        3.61789
H          2.48228        1.36889        4.16786
H          2.46641        3.07714        3.57259
H          0.96468        2.32206        4.13651
H          0.96255        2.15552        0.54738
Pd         1.38705       -0.67373        0.22384
O          1.90946       -2.78732        0.76075
C          1.64414       -3.05798       -0.43127
O          1.27978       -2.11938       -1.22342
C          1.71160       -4.45409       -0.96677
H          2.25275       -4.46353       -1.92293
H          2.19541       -5.11907       -0.24186
H          0.68893       -4.80898       -1.16515
C         -4.20374        0.55748       -0.12702
C         -4.28785       -0.83241       -0.76181
C         -2.98528       -1.58662       -0.49037
H         -5.14804       -1.38639       -0.34857
H         -4.45409       -0.74422       -1.84886
C         -1.81103       -0.81501       -1.09446
H         -0.87502       -1.37598       -0.95970
H         -1.94597       -0.69991       -2.18331
C         -3.01685        1.32217       -0.72188
H         -2.97714        2.33839       -0.29309
H         -3.17582        1.43409       -1.80688
C         -4.02532        0.41544        1.38489
H         -5.12832        1.11941       -0.34053
C         -2.77955       -1.72747        1.02044
H         -3.03063       -2.58719       -0.95196
C         -2.72437       -0.33780        1.66155
H         -3.59971       -2.31714        1.46410
H         -1.84194       -2.27224        1.22472
H         -2.57417       -0.43848        2.74964
C         -1.54970        0.44041        1.06908
H         -3.99544        1.41075        1.86055
H         -4.88319       -0.12427        1.82084
H         -0.61511       -0.09387        1.30641
H         -1.48077        1.44294        1.52702
