30
Toluene_H10_Int2_Sub67.log	Energy: -599374.0902458
C          0.88399       -0.73582       -0.47748
C          1.23159       -1.61473        0.56395
C          1.71397       -0.63904       -1.59773
C          2.39176       -2.38924        0.45625
C          0.37922       -1.68656        1.78915
C          2.85959       -1.43097       -1.70099
H          1.46115        0.05115       -2.40715
C          3.19980       -2.31068       -0.67532
H          2.66230       -3.06314        1.27483
H          0.75819       -2.42827        2.50692
F          0.38833       -0.44059        2.45083
H         -0.67054       -1.89547        1.53745
H          3.48978       -1.35781       -2.59144
H          4.09789       -2.92767       -0.75184
O          0.41850        2.02254       -0.51483
C          1.26054        2.39429        0.30343
O          1.52943        1.78764        1.42085
C          2.08225        3.61318        0.05520
H          1.66714        4.18388       -0.78177
H          2.13432        4.22658        0.96450
H          3.10769        3.29508       -0.18859
H          1.00719        0.95932        1.55167
Pd        -0.74754        0.33134       -0.37685
O         -2.92035        0.85404       -0.24247
C         -3.11759       -0.37851       -0.17852
O         -2.11509       -1.17724       -0.21068
C         -4.49189       -0.96325       -0.08106
H         -4.52404       -1.71029        0.72415
H         -5.23104       -0.17336        0.09584
H         -4.72753       -1.48417       -1.02120
