30
Toluene_H10_Int2_Sub22.log	Energy: -599375.7542830
C          0.81967       -0.77741       -0.09246
C          1.04517       -1.77198        0.88425
C          1.72259       -0.68331       -1.15363
C          2.16071       -2.61128        0.75733
C          0.09765       -1.93555        2.03793
C          2.82600       -1.51638       -1.28894
F          1.54100        0.27526       -2.07280
C          3.03877       -2.49019       -0.31749
H          2.33538       -3.37802        1.51647
H          0.42292       -2.73986        2.71222
H          0.01854       -1.00580        2.62402
H         -0.91408       -2.16315        1.66921
H          3.49277       -1.38904       -2.14384
H          3.89897       -3.15851       -0.39900
O          0.23590        2.12131        0.00332
C          1.31490        2.39709        0.52475
O          2.10478        1.51803        1.07307
C          1.82231        3.79776        0.55537
H          1.02106        4.49419        0.28784
H          2.23300        4.02865        1.54738
H          2.64429        3.88556       -0.17171
H          1.74409        0.61001        0.89837
Pd        -0.80009        0.34559       -0.08263
O         -2.94816        0.87727       -0.12745
C         -3.16267       -0.35507       -0.18053
O         -2.16535       -1.15914       -0.16389
C         -4.54214       -0.92116       -0.28850
H         -5.28712       -0.15787       -0.03464
H         -4.70754       -1.25734       -1.32345
H         -4.64248       -1.79847        0.36460
