36
Toluene_H10_Int2_Sub156.log	Energy: -586431.7248184
C          0.63236       -0.07906       -0.12462
C          1.28045       -0.61128        1.01015
C          1.39804        0.33850       -1.22174
C          2.67886       -0.69290        1.00028
C          0.49770       -1.08631        2.20135
C          2.78782        0.23455       -1.20782
H          0.90148        0.75626       -2.10247
C          3.45056       -0.28138       -0.09042
H          3.18425       -1.09830        1.88337
H          1.15945       -1.48945        2.98079
H         -0.09385       -0.26866        2.64464
H         -0.21842       -1.86569        1.89965
H          3.36527        0.56533       -2.07634
C          4.94695       -0.44463       -0.08064
O         -1.33311        2.07380       -0.38197
C         -0.63132        2.91416        0.17956
O          0.44880        2.63246        0.85125
C         -0.96748        4.36581        0.12595
H         -1.94084        4.51045       -0.35353
H         -0.96988        4.78084        1.14368
H         -0.18485        4.89378       -0.43922
H          0.65954        1.66958        0.73382
Pd        -1.32235        0.00999       -0.22196
O         -3.44982       -0.70285       -0.29137
C         -2.96691       -1.84846       -0.15774
O         -1.69742       -1.98820       -0.05528
C         -3.82245       -3.07674       -0.13259
H         -3.51027       -3.73488        0.68986
H         -4.87925       -2.80347       -0.03090
H         -3.67749       -3.63234       -1.07141
H          5.40560        0.35554       -0.68433
H          5.32246       -0.31206        0.94723
C          5.39090       -1.80438       -0.61430
H          6.48742       -1.90208       -0.59855
H          4.96696       -2.62185       -0.01102
H          5.05021       -1.95133       -1.65076
