34
Toluene_H10_Int2_Sub146.log	Energy: -585660.4675868
C          0.64248       -0.27130       -0.11280
C          1.18920       -0.93310        1.00578
C          1.47871        0.06596       -1.18966
C          2.55990       -1.21798        1.00284
C          0.32999       -1.33485        2.17103
C          2.83424       -0.23797       -1.17286
H          1.05862        0.57779       -2.06033
C          3.40341       -0.88605       -0.06595
H          2.98995       -1.72701        1.87138
H          0.91709       -1.85408        2.94139
H         -0.14731       -0.45813        2.63829
H         -0.48385       -1.99457        1.83408
H          3.45449        0.03414       -2.02978
C          4.82819       -1.22609        0.02031
O         -0.97155        2.15430       -0.33548
C         -0.17075        2.86482        0.27127
O          0.82680        2.40519        0.97218
C         -0.27659        4.35148        0.24363
H         -1.19851        4.65496       -0.26253
H         -0.25000        4.74169        1.27076
H          0.59754        4.76228       -0.28352
H          0.89138        1.42502        0.83686
Pd        -1.27398        0.10994       -0.22812
O         -3.47849       -0.26704       -0.34156
C         -3.17968       -1.47674       -0.23450
O         -1.94791       -1.81119       -0.12141
C         -4.21326       -2.55895       -0.25356
H         -4.01732       -3.27939        0.55239
H         -5.21701       -2.12943       -0.15450
H         -4.14171       -3.10430       -1.20674
C          5.77752       -0.98186       -0.89119
H          5.11975       -1.73752        0.94495
H          5.56684       -0.47722       -1.83806
H          6.81203       -1.28559       -0.71699
