33
Toluene_H10_Int2_Sub162.log	Energy: -561782.1684675
C          0.82355       -0.36999       -0.20817
C          1.36662       -1.10357        0.86803
C          1.62692       -0.08942       -1.32147
C          2.70301       -1.51486        0.78711
C          0.53470       -1.45124        2.06986
C          2.95097       -0.52091       -1.37940
H          1.21164        0.47419       -2.16212
C          3.51280       -1.23819       -0.31910
H          3.12411       -2.08349        1.62278
H          1.10936       -2.04033        2.79835
H          0.16677       -0.54475        2.57763
H         -0.35387       -2.02491        1.76537
H          3.55502       -0.29633       -2.26329
C          4.94857       -1.67555       -0.35038
O         -0.59188        2.19072       -0.28080
C          0.30776        2.81367        0.28180
O          1.31549        2.25276        0.88760
C          0.31969        4.30445        0.30779
H         -0.60664        4.69697       -0.12360
H          0.44445        4.65309        1.34268
H          1.18718        4.66590       -0.26439
H          1.28867        1.27472        0.71828
Pd        -1.05874        0.17532       -0.21324
O         -3.29299       -0.01934       -0.21753
C         -3.08779       -1.25172       -0.15093
O         -1.88459       -1.68778       -0.11933
C         -4.21707       -2.23368       -0.09604
H         -4.77669       -2.08348        0.83908
H         -4.90991       -2.03749       -0.92627
H         -3.84590       -3.26413       -0.14392
H          5.30412       -1.81732       -1.38122
H          5.09450       -2.61946        0.19493
H          5.60253       -0.92248        0.12090
