31
Toluene_H10_Int2_Sub168.log	Energy: -618214.4754912
C          0.67031       -0.29475       -0.11730
C          1.20057       -0.98800        0.99447
C          1.50394        0.06538       -1.19536
C          2.56605       -1.29036        0.98614
C          0.33146       -1.40101        2.14812
C          2.85346       -0.25162       -1.19252
H          1.07780        0.60212       -2.04787
C          3.37972       -0.92949       -0.08775
H          3.03222       -1.82140        1.82078
H          0.91104       -1.94139        2.90903
H         -0.13687       -0.52824        2.63135
H         -0.48840       -2.04496        1.79611
H          3.52208        0.00992       -2.01528
N          4.75659       -1.29474        0.02864
O         -0.90198        2.15507       -0.34239
C         -0.11528        2.85959        0.28914
O          0.83600        2.38791        1.04675
C         -0.18190        4.34635        0.23143
H         -1.06515        4.66289       -0.33222
H         -0.20513        4.75339        1.25216
H          0.73173        4.72650       -0.24975
H          0.88087        1.40827        0.93627
Pd        -1.23641        0.11834       -0.22589
O         -3.43146       -0.20519       -0.34741
C         -3.16809       -1.42463       -0.24037
O         -1.94471       -1.78811       -0.12915
C         -4.24224       -2.46490       -0.22778
H         -4.86432       -2.32576        0.66876
H         -4.89322       -2.32500       -1.10206
H         -3.81321       -3.47368       -0.22845
O          5.45480       -0.97997       -0.90001
