33
Toluene_H10_Int2_Sub117.log	Energy: -561782.3309372
C          0.78184       -0.61539        0.02790
C          1.05785       -1.35332        1.19708
C          1.73306       -0.54371       -0.99851
C          2.30502       -1.98725        1.28707
C          0.05366       -1.46715        2.30875
C          2.96939       -1.19390       -0.90797
H          1.50853        0.03725       -1.89899
C          3.24140       -1.91280        0.26074
H          2.54220       -2.55715        2.19037
H          0.42888       -2.10434        3.12197
H         -0.18986       -0.47995        2.73464
H         -0.88966       -1.88869        1.92956
C          3.95796       -1.14089       -2.03632
H          4.20296       -2.42209        0.37056
O         -0.08725        2.15465       -0.29540
C          0.84728        2.62863        0.34922
O          1.65026        1.92627        1.09737
C          1.14952        4.08839        0.31723
H          0.37022        4.62320       -0.23497
H          1.22972        4.47035        1.34470
H          2.12712        4.24099       -0.16413
H          1.45452        0.96255        0.96827
Pd        -0.94653        0.27238       -0.21287
O         -3.16620        0.50427       -0.46528
C         -3.21093       -0.73885       -0.33838
O         -2.12497       -1.39190       -0.14939
C         -4.49585       -1.50313       -0.41796
H         -4.55433       -2.22494        0.40831
H         -5.35022       -0.81664       -0.39380
H         -4.51347       -2.07667       -1.35696
H          4.99258       -1.09243       -1.66521
H          3.78451       -0.27003       -2.68473
H          3.88103       -2.04093       -2.66898
