30
Toluene_H10_Int2_Sub113.log	Energy: -537130.2520660
C          0.88189       -0.77037       -0.27248
C          1.19342       -1.66250        0.77628
C          1.70483       -0.71094       -1.40632
C          2.33790       -2.46277        0.64884
C          0.32142       -1.76522        1.99544
C          2.83217       -1.52504       -1.51606
H          1.46092       -0.01787       -2.21678
C          3.15005       -2.40159       -0.48119
H          2.58911       -3.15414        1.45857
H          0.70041       -2.52304        2.69544
H          0.26560       -0.80347        2.53109
H         -0.70820       -2.02622        1.70714
H          3.46029       -1.47096       -2.40882
H          4.03316       -3.04103       -0.55215
O          0.33692        2.10401       -0.24743
C          1.39369        2.40271        0.30724
O          2.18461        1.54205        0.88326
C          1.87122        3.81407        0.35851
H          1.10805        4.48571       -0.04730
H          2.11307        4.08290        1.39648
H          2.80025        3.89932       -0.22477
H          1.85365        0.62574        0.69923
Pd        -0.73494        0.33375       -0.20585
O         -2.91486        0.84734       -0.14489
C         -3.10579       -0.38879       -0.11057
O         -2.09958       -1.18020       -0.12462
C         -4.48450       -0.96863       -0.04085
H         -4.94752       -0.67700        0.91348
H         -5.09915       -0.54198       -0.84581
H         -4.45672       -2.06171       -0.12021
