49
TwoHchromene_H8_deriv1_Int2_Sub19.log	Energy: -1067560.1225311
C          0.52438       -0.39251       -0.39148
C         -0.19644       -1.49233       -0.86649
C         -0.22116        0.70973        0.04301
C         -1.59218       -1.48389       -0.92200
H          0.34551       -2.39006       -1.17458
C         -1.62714        0.74629       -0.01274
O          0.47014        1.81286        0.45730
C         -2.33171       -0.38013       -0.49896
H         -2.10566       -2.37075       -1.29537
C         -2.26392        1.97924        0.41975
C         -0.12584        2.67330        1.35169
C         -3.84286       -0.38817       -0.48981
C         -1.55661        2.92415        1.06043
H         -3.32546        2.13406        0.21933
Cl         0.02307        2.00175        3.06700
H          0.48799        3.58055        1.37463
H         -2.00445        3.85098        1.42279
O          2.89781        1.28648       -1.05641
C          2.34227        1.81540       -2.01563
O          1.29368        1.32047       -2.61296
C          2.82564        3.10790       -2.57719
H          3.82142        3.33937       -2.18546
H          2.83120        3.06696       -3.67452
H          2.11931        3.89775       -2.27835
H          0.97618        0.53722       -2.09759
Pd         2.47441       -0.52610       -0.17009
O          4.41662       -1.40410        0.42815
C          3.74434       -2.37350        0.84914
O          2.47273       -2.35807        0.70090
C          4.37534       -3.53477        1.54842
H          4.26261       -3.39477        2.63453
H          3.86359       -4.46720        1.27626
H          5.44377       -3.58801        1.30714
H         -4.18553        0.61251       -0.81302
C         -4.38110       -0.61156        0.93309
H         -3.93025        0.11555        1.62715
H         -4.04533       -1.60672        1.27522
C         -5.90222       -0.52847        0.98135
H         -6.25927       -0.72909        2.00437
H         -6.21479        0.50471        0.74238
C         -6.55065       -1.48923       -0.00900
H         -7.64651       -1.37344        0.00292
H         -6.34466       -2.52775        0.30767
C         -6.00766       -1.28278       -1.41883
H         -6.31140       -0.28526       -1.78541
H         -6.45157       -2.01454       -2.11284
C         -4.48658       -1.38820       -1.45043
H         -4.19990       -2.41451       -1.16146
H         -4.10506       -1.23067       -2.47236
