49
TwoHchromene_H8_Int2_Sub19.log	Energy: -779235.5282693
C          1.10038       -0.65030        0.96179
C          1.62685       -0.94189        2.22898
C          0.20772       -1.56605        0.38918
C          1.27670       -2.11553        2.90248
H          2.30767       -0.23033        2.70358
C         -0.17646       -2.74080        1.06604
O         -0.24242       -1.33537       -0.86843
C          0.37606       -3.00481        2.32373
H          1.69948       -2.32501        3.88756
C         -1.12532       -3.61544        0.38874
C         -1.57872       -1.75032       -1.14676
H          0.08715       -3.91956        2.84813
C         -1.79235       -3.16562       -0.68439
H         -1.27551       -4.62846        0.77201
C         -2.56088       -0.74591       -0.52894
H         -1.65782       -1.69612       -2.24482
H         -2.50986       -3.79345       -1.21727
O          2.60977        0.38025       -1.39462
C          3.24545       -0.66385       -1.52537
O          3.25284       -1.63104       -0.65432
C          4.07626       -0.91388       -2.73818
H          4.16432        0.00308       -3.32970
H          5.06572       -1.28993       -2.44455
H          3.59086       -1.69814       -3.33888
H          2.61647       -1.41663        0.07654
Pd         1.36542        1.08659        0.08802
O          1.07173        3.26423       -0.28840
C          0.30015        3.23326        0.69678
O          0.14052        2.13254        1.33133
C         -0.47620        4.43377        1.13772
H         -1.50602        4.34295        0.75908
H         -0.52617        4.47434        2.23381
H         -0.02635        5.34764        0.73165
H         -2.38225       -0.77013        0.56367
C         -4.02165       -1.12029       -0.77000
H         -4.23170       -2.12653       -0.37308
H         -4.20883       -1.16342       -1.86003
C         -4.96566       -0.10439       -0.13283
H         -6.01274       -0.37482       -0.34562
H         -4.84952       -0.15218        0.96489
C         -4.67577        1.31697       -0.60375
H         -5.34039        2.03178       -0.09158
H         -4.90805        1.39469       -1.68170
C         -3.21339        1.68772       -0.38217
H         -2.99739        1.73438        0.70010
H         -3.00728        2.69388       -0.78325
C         -2.27813        0.67174       -1.02345
H         -2.40170        0.69502       -2.12271
H         -1.22929        0.93267       -0.81879
