36
TwoHchromene_H8_Int2_Sub22.log	Energy: -656735.3314422
C         -0.25783       -0.69981       -0.66295
C         -0.12094       -1.66186       -1.67474
C         -1.52034       -0.53764       -0.07352
C         -1.21012       -2.41899       -2.11087
H          0.86674       -1.83218       -2.11076
C         -2.63204       -1.28955       -0.50704
O         -1.68172        0.43110        0.86246
C         -2.45940       -2.22777       -1.52982
H         -1.07773       -3.16091       -2.90143
C         -3.91844       -1.00493        0.11475
C         -2.70375        0.25231        1.84135
H         -3.32303       -2.80762       -1.86639
C         -3.97711       -0.24056        1.21376
H         -4.82245       -1.41731       -0.34178
C         -2.21175       -0.67023        2.94772
H         -2.85706        1.26201        2.25391
H         -4.92516       -0.00543        1.70411
O          0.49090        2.10930       -0.02410
C         -0.32976        2.57397       -0.81119
O         -0.84370        1.90779       -1.80700
C         -0.82935        3.97066       -0.67439
H         -0.16821        4.54496       -0.01717
H         -0.92036        4.44418       -1.66056
H         -1.83608        3.92552       -0.23056
H         -0.56770        0.96046       -1.73113
Pd         1.34706        0.23536       -0.01680
O          3.44387        0.48755        0.68533
C          3.54545       -0.74967        0.52472
O          2.53817       -1.40707        0.08574
C          4.80013       -1.49421        0.85662
H          4.66943       -1.99228        1.82957
H          4.98824       -2.27384        0.10655
H          5.64724       -0.80100        0.92184
H         -2.96828       -0.75752        3.74189
H         -1.28066       -0.27965        3.38410
H         -2.01818       -1.67585        2.54481
