36
TwoHchromene_H8_deriv1_Int2_Sub25.log	Energy: -1131802.1286035
C          0.76891        1.18971        0.55502
C          1.40746        2.34487        1.02946
C         -0.60425        1.28184        0.30778
C          0.70230        3.52826        1.26638
H          2.48814        2.32000        1.18987
C         -1.33678        2.45945        0.52957
O         -1.25708        0.14749       -0.09059
C         -0.66298        3.58593        1.01736
H          1.22998        4.40970        1.63707
C         -2.75942        2.42904        0.25523
C         -2.45662        0.22605       -0.74791
H         -1.22528        4.50630        1.19335
C         -3.31934        1.36402       -0.33770
H         -3.36588        3.29593        0.52938
Cl        -2.16575        0.35118       -2.56348
C         -3.13554       -1.13623       -0.51934
H         -4.37771        1.30959       -0.59437
O          0.61141       -1.80004        0.85950
C         -0.03594       -1.75273        1.90296
O         -0.07973       -0.70109        2.67579
C         -0.85240       -2.90696        2.36472
H         -0.54558       -3.81609        1.83746
H         -0.76665       -3.02623        3.45245
H         -1.90439       -2.68724        2.12808
H          0.39889        0.03660        2.22856
Pd         1.87020       -0.37348        0.07994
O          3.58265       -1.48344       -0.75816
C          4.04443       -0.36195       -1.07082
O          3.38210        0.68827       -0.75424
C          5.32408       -0.20994       -1.82722
H          5.08756       -0.06067       -2.89199
H          5.87022        0.67602       -1.47775
H          5.93514       -1.11464       -1.72405
F         -4.29825       -1.20169       -1.15361
F         -3.37658       -1.28555        0.79125
F         -2.37565       -2.14575       -0.90622
