36
TwoHchromene_H8_deriv1_Int2_Sub30.log	Energy: -945064.1009700
C          0.09445       -0.84066       -0.80541
C          0.42441       -1.91439       -1.64454
C         -1.24859       -0.70322       -0.43389
C         -0.54943       -2.80037       -2.11400
H          1.47212       -2.07219       -1.91235
C         -2.24430       -1.58667       -0.88666
O         -1.60006        0.37700        0.32054
C         -1.87645       -2.63671       -1.73673
H         -0.26229       -3.62685       -2.76781
C         -3.60537       -1.33854       -0.45278
C         -2.72802        0.32616        1.12113
H         -2.64661       -3.32578       -2.09261
C         -3.85367       -0.42470        0.49794
H         -4.41542       -1.92027       -0.90020
Cl        -2.28017       -0.59563        2.68431
C         -3.05859        1.74080        1.53144
H         -4.85783       -0.23384        0.88104
O          0.61473        2.07244       -0.33952
C         -0.07601        2.42174       -1.29304
O         -0.39147        1.63831       -2.28709
C         -0.63826        3.79813       -1.38125
H         -0.12598        4.45938       -0.67477
H         -0.56218        4.17786       -2.40847
H         -1.70733        3.74628       -1.12272
H         -0.08363        0.72233       -2.07680
Pd         1.54405        0.25614       -0.04851
O          3.49322        0.70411        0.89695
C          3.68708       -0.53313        0.87230
O          2.79277       -1.29034        0.35578
C          4.91402       -1.15802        1.45444
H          4.67248       -1.53720        2.45935
H          5.23360       -2.01174        0.84255
H          5.71496       -0.41385        1.53965
H         -3.35411        2.31574        0.64024
H         -2.17686        2.20549        1.99161
H         -3.88554        1.74339        2.25249
