36
TwoHchromene_H8_deriv1_Int2_Sub6.log	Energy: -945062.6107166
C         -0.24193        0.20118       -0.94947
C         -0.14269        0.34533       -2.34907
C         -1.49216       -0.09232       -0.39677
C         -1.29797        0.20842       -3.13583
C          1.18504        0.62044       -2.99201
C         -2.65087       -0.23667       -1.17942
O         -1.58690       -0.14637        0.96434
C         -2.52995       -0.07878       -2.56432
H         -1.21732        0.32392       -4.21960
C         -3.89768       -0.51345       -0.49400
C         -2.59411       -0.89625        1.53249
H         -3.41872       -0.18430       -3.19166
C         -3.89071       -0.81354        0.81496
H         -4.83104       -0.48207       -1.06205
Cl        -2.08157       -2.67091        1.61362
H         -2.65325       -0.59786        2.58504
H         -4.79733       -1.06268        1.36895
O          0.77569        1.80237        1.34717
C          0.06786        2.76840        1.07140
O         -0.56219        2.91172       -0.06018
C         -0.13998        3.87858        2.04414
H          0.55487        3.77837        2.88412
H         -0.01252        4.84679        1.54112
H         -1.17655        3.83275        2.41146
H         -0.45309        2.08216       -0.59437
Pd         1.35142        0.18288        0.20996
O          3.28670       -0.50424        1.03827
C          3.24937       -1.39041        0.15440
O          2.26567       -1.40745       -0.66582
C          4.29926       -2.44875        0.04163
H          3.90965       -3.37949        0.48168
H          4.52461       -2.64873       -1.01433
H          5.20264       -2.14739        0.58512
H          1.88521       -0.20183       -2.77781
H          1.64225        1.53694       -2.58571
H          1.08921        0.73498       -4.08065
