38
TwoHchromene_H8_deriv1_Int2_Sub23.log	Energy: -979771.7134742
C         -0.11629       -0.56578       -0.43045
C         -0.45239       -1.81646       -0.96421
C         -1.18013        0.20830        0.04985
C         -1.76668       -2.27489       -1.03411
H          0.35050       -2.47636       -1.30314
C         -2.52252       -0.19931       -0.03419
O         -0.89206        1.45386        0.52621
C         -2.82351       -1.48463       -0.55823
H         -1.96223       -3.26894       -1.43604
C         -3.53336        0.75970        0.35722
C         -1.76892        2.05417        1.40480
N         -4.12985       -1.90899       -0.60246
C         -3.19071        1.87172        1.03080
H         -4.57305        0.59209        0.06363
Cl        -1.49801        1.38847        3.10832
H         -1.46320        3.10292        1.48634
H         -3.91591        2.62468        1.34272
O          1.62316        1.80791       -0.91064
C          0.93843        2.18790       -1.85782
O          0.09926        1.42597       -2.50007
C          1.00592        3.59394       -2.34742
H          1.87614        4.10111       -1.91829
H          1.03881        3.61188       -3.44495
H          0.08587        4.11158       -2.03515
H          0.03122        0.55816       -2.01856
Pd         1.77878       -0.10147       -0.14939
O          3.89440       -0.37409        0.45492
C          3.55217       -1.53103        0.79066
O          2.34116       -1.90089        0.60350
C          4.50669       -2.48616        1.43416
H          4.34575       -2.46454        2.52301
H          4.31328       -3.50979        1.08745
H          5.54098       -2.18888        1.22323
H         -4.74151       -1.49782        0.08812
C         -4.49487       -3.22267       -1.04974
H         -5.58763       -3.32528       -1.00988
H         -4.04987       -4.03577       -0.44364
H         -4.18815       -3.37935       -2.09637
