36
TwoHchromene_H8_deriv1_Int2_Sub9.log	Energy: -1131807.1267729
C          0.25794       -0.13993        0.14754
C          1.24404       -1.12078        0.29367
C          0.68580        1.17062       -0.10506
C          2.60523       -0.80267        0.21792
H          0.94379       -2.15954        0.45050
C          2.04810        1.51087       -0.18874
O         -0.25659        2.14958       -0.18747
C          3.00558        0.50614       -0.01903
C          3.62274       -1.89963        0.34903
C          2.38332        2.90370       -0.41912
C          0.02555        3.29467       -0.90718
H          4.06653        0.75727       -0.07111
C          1.41977        3.77871       -0.74587
H          3.42679        3.21617       -0.33109
Cl        -0.29089        2.99990       -2.69583
H         -0.73151        4.03480       -0.62474
H          1.62423        4.82870       -0.96189
O         -2.32514        0.81836        1.31873
C         -1.78931        1.28565        2.32029
O         -0.61247        0.91936        2.74990
C         -2.44735        2.34453        3.13405
H         -3.50070        2.43663        2.85039
H         -2.34308        2.12100        4.20410
H         -1.92884        3.29662        2.94231
H         -0.21453        0.30252        2.09029
Pd        -1.63056       -0.69619        0.10783
O         -3.38801       -1.91013       -0.42806
C         -2.58664       -2.63017       -1.06805
O         -1.34053       -2.33169       -1.04730
C         -3.03669       -3.80272       -1.87617
H         -3.09414       -3.50028       -2.93311
H         -2.30582       -4.61860       -1.80125
H         -4.02918       -4.13222       -1.54636
F          4.84219       -1.41916        0.61561
F          3.72087       -2.62075       -0.77292
F          3.30257       -2.75060        1.33005
