42
TwoHchromene_H8_Int2_Sub13.log	Energy: -706031.3076070
C         -0.06859       -0.39993       -0.11303
C         -0.55126       -1.52350       -0.79436
C         -0.99973        0.37289        0.59477
C         -1.90803       -1.84449       -0.79969
H          0.15796       -2.17624       -1.30969
C         -2.38200        0.08171        0.57134
O         -0.54951        1.48776        1.22829
C         -2.84299       -1.05381       -0.12794
H         -2.23581       -2.73585       -1.33731
C         -3.26137        1.04196        1.23616
C         -1.28431        1.93215        2.35125
C         -4.32481       -1.37289       -0.19042
C         -2.75297        1.95707        2.07334
H         -4.33156        1.02568        1.02278
H         -1.05876        1.27720        3.21990
H         -0.89387        2.93156        2.59008
H         -3.38345        2.69673        2.57304
O          1.73834        1.93573       -0.46447
C          0.94765        2.51464       -1.20494
O         -0.01000        1.91840       -1.85864
C          1.01236        3.98939       -1.40594
H          1.97896        4.37436       -1.06486
H          0.83233        4.24143       -2.45910
H          0.20652        4.44560       -0.81014
H         -0.06566        0.97862       -1.55129
Pd         1.87107       -0.07996       -0.05485
O          4.03522       -0.55648        0.15903
C          3.65841       -1.73430        0.35245
O          2.40769       -2.00493        0.31093
C          4.62217       -2.83683        0.66021
H          4.60485       -3.03002        1.74380
H          4.31598       -3.76112        0.15250
H          5.63789       -2.54658        0.36612
H         -4.77881       -1.00757        0.74532
C         -4.98096       -0.62532       -1.35478
H         -6.06743       -0.80574       -1.37978
H         -4.81427        0.46031       -1.28751
H         -4.55721       -0.96354       -2.31368
C         -4.62554       -2.86665       -0.26689
H         -4.12134       -3.42210        0.53783
H         -5.70873       -3.04056       -0.17708
H         -4.30868       -3.30055       -1.22804
