49
TwoHchromene_H8_deriv1_Int2_Sub27.log	Energy: -1067564.3657501
C          1.28470        1.17594        0.60258
C          2.17803        2.11967        1.12862
C          0.00587        1.62397        0.25063
C          1.80099        3.45315        1.31526
H          3.19577        1.80711        1.37556
C         -0.39324        2.96064        0.41987
O         -0.89079        0.69964       -0.19057
C          0.52342        3.87018        0.96186
H          2.51656        4.16741        1.72848
C         -1.74488        3.30851        0.02671
C         -1.96130        1.07678       -0.97854
H          0.22010        4.91146        1.09729
C         -2.50370        2.42017       -0.63304
H         -2.11923        4.30972        0.25494
Cl        -1.34926        1.23900       -2.74412
C         -2.99178       -0.04973       -0.94258
H         -3.50835        2.65709       -0.98813
O          0.39584       -1.62665        1.20235
C         -0.17227       -1.31136        2.24555
O         -0.01183       -0.16313        2.84123
C         -1.11220       -2.24207        2.93214
H         -1.13741       -3.20325        2.40917
H         -0.79611       -2.37753        3.97625
H         -2.11659       -1.79432        2.94959
H          0.56656        0.41133        2.27849
Pd         1.89897       -0.64432        0.18199
O          3.17052       -2.22800       -0.69259
C          3.87257       -1.29083       -1.13843
O          3.54482       -0.08452       -0.86194
C          5.06314       -1.53357       -2.00941
H          4.77043       -1.37154       -3.05819
H          5.86135       -0.81834       -1.77108
H          5.41375       -2.56615       -1.89388
H         -3.77052        0.23397       -1.67273
C         -3.63475       -0.13422        0.44561
H         -4.08861        0.83200        0.71835
H         -2.83581       -0.31362        1.18541
C         -4.67493       -1.24666        0.51996
H         -5.08864       -1.30564        1.54011
H         -5.52262       -0.99081       -0.14093
C         -4.09966       -2.59196        0.09304
H         -4.88256       -3.36728        0.11268
H         -3.33152       -2.90801        0.82195
C         -3.46421       -2.50172       -1.28909
H         -4.25158       -2.29846       -2.03763
H         -3.01375       -3.46704       -1.56972
C         -2.41040       -1.40292       -1.34990
H         -1.57618       -1.64796       -0.67177
H         -1.98122       -1.32724       -2.35903
