42
TwoHchromene_H8_deriv1_Int2_Sub29.log	Energy: -994363.7283301
C         -0.46172        1.07336       -0.78612
C         -0.96004        2.16782       -1.50784
C          0.88747        1.10735       -0.41407
C         -0.14065        3.24459       -1.85709
H         -2.01880        2.18635       -1.77800
C          1.72739        2.18623       -0.74049
O          1.40382        0.01199        0.21011
C          1.19462        3.25451       -1.47168
H         -0.55561        4.08330       -2.42039
C          3.10599        2.11847       -0.29677
C          2.53084        0.11268        1.00349
H          1.84278        4.09606       -1.72916
C          3.50104        1.13821        0.52926
H          3.80385        2.89270       -0.62573
Cl         1.99311        0.69537        2.69977
C          3.12480       -1.29160        1.15372
H          4.51697        1.07961        0.92443
O         -0.65215       -1.93641       -0.81298
C          0.04888       -2.05682       -1.81526
O          0.36842       -1.06648       -2.59983
C          0.62097       -3.37761       -2.20093
H          0.00793       -4.18404       -1.78385
H          0.70457       -3.46094       -3.29152
H          1.63341       -3.44930       -1.77363
H          0.02088       -0.22454       -2.20962
Pd        -1.70651       -0.30203       -0.12880
O         -3.49461       -1.12848        0.87461
C         -3.81546        0.06409        1.08584
O         -3.05947        0.99736        0.64225
C         -5.03576        0.43315        1.86652
H         -4.73418        0.67294        2.89777
H         -5.50517        1.32871        1.43867
H         -5.74026       -0.40691        1.88910
H          3.93355       -1.18858        1.89636
C          2.10752       -2.30001        1.66979
H          2.58786       -3.27898        1.81543
H          1.68314       -1.97547        2.62900
H          1.27602       -2.42105        0.96048
C          3.72906       -1.73317       -0.17750
H          4.54943       -1.07601       -0.50101
H          4.12509       -2.75653       -0.09678
H          2.96726       -1.71688       -0.97160
