49
TwoHchromene_H8_Int2_Sub3.log	Energy: -779233.4791748
C         -0.57631        0.51461       -0.36188
C          0.28949        1.63091       -0.42042
C         -1.93732        0.68932       -0.64149
C         -0.24975        2.88923       -0.72491
C          1.76643        1.44613       -0.14459
C         -2.47827        1.95823       -0.93220
O         -2.75874       -0.38526       -0.51377
C         -1.60947        3.04989       -0.96964
H          0.40414        3.76079       -0.77273
C         -3.92066        2.05614       -1.11228
C         -3.95681       -0.38506       -1.26816
H         -2.01327        4.04197       -1.18903
C         -4.65163        0.94103       -1.24557
H         -4.38212        3.04733       -1.12234
H         -3.73004       -0.68616       -2.31326
H         -4.58235       -1.17854       -0.83466
H         -5.73581        0.97121       -1.38038
O         -1.01999       -1.58669        1.68317
C         -1.48931       -0.79569        2.49778
O         -1.40485        0.50022        2.39400
C         -2.22522       -1.27361        3.70323
H         -2.07234       -2.34944        3.83675
H         -1.89869       -0.71471        4.59050
H         -3.29699       -1.06805        3.55898
H         -1.00293        0.72872        1.51588
Pd         0.08204       -1.31521       -0.04077
O          1.22252       -3.20615       -0.37285
C          1.68680       -2.63774       -1.38551
O          1.31524       -1.44201       -1.65769
C          2.66300       -3.30643       -2.30165
H          2.94994       -4.28688       -1.90429
H          2.20572       -3.42487       -3.29503
H          3.54952       -2.66808       -2.42462
H          2.05999        0.52095       -0.67106
C          2.04211        1.21625        1.34920
H          1.42060        0.38257        1.71517
H          1.73479        2.11619        1.91331
C          3.51266        0.91006        1.60655
H          3.69077        0.78028        2.68655
H          3.75824       -0.05726        1.13226
C          4.42248        1.99451        1.04129
H          5.48087        1.72459        1.18920
H          4.25974        2.93254        1.60304
C          4.13567        2.24314       -0.43535
H          4.40441        1.34257       -1.01633
H          4.76924        3.05988       -0.81771
C          2.66365        2.56560       -0.66964
H          2.42376        3.51324       -0.15401
H          2.47021        2.73091       -1.74190
