45
TwoHchromene_H8_deriv1_Int2_Sub4.log	Energy: -1019008.4124183
C          0.01093        0.71830       -0.33210
C          0.66205        1.69293       -1.12819
C         -1.36729        0.84562       -0.11223
C         -0.11605        2.74297       -1.65252
C          2.15878        1.61028       -1.46714
C         -2.14050        1.88873       -0.64442
O         -1.95162       -0.05050        0.73942
C         -1.48086        2.84119       -1.42414
H          0.35794        3.50859       -2.26479
C         -3.55433        1.92098       -0.32647
C         -3.29775       -0.31570        0.61372
H         -2.04989        3.67076       -1.85144
C         -4.12381        0.87545        0.29411
H         -4.13976        2.79940       -0.60993
Cl        -3.56852       -1.58404       -0.70389
H         -3.60367       -0.82963        1.53168
H         -5.18958        0.83400        0.52525
O          1.08896       -0.21527        2.31681
C          0.96808        0.89182        2.83525
O          0.57576        1.95890        2.19872
C          1.27895        1.11097        4.27724
H          1.58036        0.16841        4.74502
H          2.08412        1.85518        4.36441
H          0.39489        1.52651        4.78189
H          0.37868        1.72206        1.25488
Pd         0.76925       -0.95535        0.40759
O          1.35246       -3.07969        0.51800
C          0.98205       -3.15772       -0.67694
O          0.56035       -2.10159       -1.26370
C          0.99321       -4.44588       -1.43458
H         -0.04440       -4.78982       -1.56207
H          1.41357       -4.28708       -2.43698
H          1.56478       -5.20525       -0.88814
C          2.37235        0.44764       -2.44839
H          3.44147        0.35557       -2.69947
H          2.02398       -0.50819       -2.03430
H          1.81510        0.62404       -3.38120
C          2.67158        2.89242       -2.13044
H          2.51524        3.77755       -1.49415
H          3.75283        2.79797       -2.31158
H          2.19687        3.07677       -3.10550
C          2.99986        1.38809       -0.20362
H          4.06837        1.35204       -0.46615
H          2.85679        2.20657        0.51989
H          2.75094        0.43607        0.29078
