38
TwoHchromene_H8_deriv1_Int2_Sub31.log	Energy: -979774.2576298
C         -0.31357        1.16087       -0.43688
C         -0.75702        2.43337       -0.82054
C          1.05934        1.00256       -0.21317
C          0.13662        3.49165       -1.01439
H         -1.82934        2.59979       -0.95051
C          1.98067        2.04257       -0.42495
O          1.51243       -0.23930        0.11623
C          1.49847        3.29460       -0.82730
H         -0.24020        4.47209       -1.31389
C          3.38789        1.73556       -0.26012
C          2.73342       -0.39766        0.71733
H          2.20838        4.10928       -0.99064
C          3.76829        0.55993        0.26304
H          4.12776        2.48067       -0.56248
Cl         2.43843        0.10633        2.60211
N          3.09893       -1.73934        0.64095
H          4.81473        0.29866        0.43045
O         -0.50543       -1.76131       -0.97285
C          0.23221       -1.67761       -1.95366
O          0.31996       -0.61045       -2.69953
C          1.13898       -2.78990       -2.34036
H          0.73159       -3.74720       -1.99721
H          1.32456       -2.79405       -3.42104
H          2.09347       -2.60186       -1.81838
H         -0.17267        0.12055       -2.25772
Pd        -1.64777       -0.25650       -0.13730
O         -3.54505       -1.18420        0.52358
C         -3.86578       -0.03683        0.90987
O         -3.05080        0.93232        0.71588
C         -5.15396        0.23408        1.61800
H         -4.95848        0.27360        2.70067
H         -5.55728        1.20928        1.31516
H         -5.87372       -0.56839        1.41677
H          4.05242       -1.85907        0.96728
C          2.19219       -2.71826        1.21027
H          2.58902       -3.72442        1.01826
H          1.20819       -2.63437        0.73106
H          2.05780       -2.57393        2.29627
