37
TwoHchromene_H8_deriv1_Int2_Sub24.log	Energy: -992227.4459246
C         -0.12300       -0.60429       -0.38891
C         -0.43776       -1.88525       -0.85473
C         -1.19660        0.18406        0.04920
C         -1.75097       -2.36097       -0.91746
H          0.37518       -2.55063       -1.15620
C         -2.52825       -0.25404        0.00313
O         -0.93288        1.45917        0.45322
C         -2.80039       -1.54859       -0.48817
H         -1.93654       -3.36896       -1.28742
C         -3.56605        0.65885        0.43337
C         -1.80156        2.08246        1.32540
O         -4.09864       -1.90588       -0.50456
C         -3.23168        1.80338        1.05193
H         -4.60629        0.38753        0.24769
Cl        -1.41461        1.56975        3.05887
H         -1.54776        3.14824        1.31168
H         -3.97316        2.51401        1.42063
O          1.56997        1.78327       -0.97407
C          0.87736        2.11630       -1.93268
O          0.06804        1.30847       -2.55900
C          0.89649        3.51063       -2.45680
H          1.75000        4.05703       -2.04257
H          0.92514        3.50371       -3.55449
H         -0.03959        4.00381       -2.15246
H          0.02970        0.45279       -2.05882
Pd         1.76681       -0.09665       -0.15428
O          3.89091       -0.30940        0.42847
C          3.57666       -1.46062        0.80871
O          2.37023       -1.85898        0.64950
C          4.55712       -2.37386        1.47236
H          4.41125       -2.31434        2.56192
H          4.37751       -3.41292        1.16666
H          5.58267       -2.06615        1.23534
C         -4.44506       -3.17785       -0.97832
H         -4.14578       -3.31726       -2.03183
H         -3.98922       -3.97773       -0.36953
H         -5.53719       -3.25353       -0.90510
