42
TwoHchromene_H8_Int2_Sub21.log	Energy: -706035.7086071
C         -0.02624        0.39497        1.11992
C         -0.27726        0.56519        2.48956
C          1.30525        0.24076        0.70901
C          0.76475        0.60858        3.41837
H         -1.31215        0.64183        2.83270
C          2.36941        0.28098        1.63340
O          1.57136        0.14229       -0.61736
C          2.08088        0.46924        2.98877
H          0.54380        0.74417        4.47942
C          3.71969        0.16920        1.09772
C          2.71294       -0.62162       -0.99620
H          2.90544        0.50559        3.70577
C          3.90535       -0.22682       -0.16997
H          4.56297        0.42996        1.74323
C          2.39461       -2.12518       -0.92149
H          2.87787       -0.35510       -2.05376
H          4.90343       -0.30247       -0.60681
O         -0.81287        1.51134       -1.52401
C         -0.15810        2.53705       -1.35470
O          0.22389        2.97435       -0.18783
C          0.27809        3.37507       -2.50632
H         -0.30885        3.12737       -3.39688
H          0.19703        4.44133       -2.25874
H          1.33998        3.15473       -2.69740
H          0.01894        2.28559        0.49264
Pd        -1.53629        0.18701       -0.12245
O         -3.46701       -0.59458       -0.90667
C         -3.51267       -1.26763        0.14764
O         -2.56880       -1.14900        1.00511
C         -4.62158       -2.23164        0.42900
H         -4.26332       -3.25243        0.22561
H         -4.90558       -2.18396        1.48870
H         -5.48210       -2.01981       -0.21672
H          2.22906       -2.35455        0.14737
C          1.11959       -2.44895       -1.68870
H          0.88051       -3.52023       -1.60824
H          0.26170       -1.87798       -1.30430
H          1.23122       -2.20940       -2.75947
C          3.57540       -2.95330       -1.41236
H          4.47982       -2.78452       -0.80905
H          3.34063       -4.02707       -1.36435
H          3.81590       -2.71613       -2.46281
