36
TwoHchromene_H8_deriv1_Int2_Sub22.log	Energy: -945061.8890305
C         -0.14664       -0.62074       -0.63609
C         -0.21753       -1.73640       -1.47777
C         -1.35132       -0.16627       -0.08592
C         -1.43647       -2.35054       -1.77439
H          0.70618       -2.15044       -1.88981
C         -2.59027       -0.76832       -0.37184
O         -1.30973        0.95791        0.68874
C         -2.63403       -1.88499       -1.23404
H         -1.45167       -3.22177       -2.43425
C         -3.76856       -0.17413        0.23362
C         -2.28609        1.15187        1.64019
C         -3.93482       -2.56048       -1.55480
C         -3.64298        0.76265        1.18789
H         -4.75851       -0.49975       -0.09148
Cl        -1.87565        0.19580        3.16769
H         -2.20973        2.19631        1.96256
H         -4.50161        1.21231        1.68940
O          1.12416        2.07275       -0.44462
C          0.41680        2.54647       -1.32992
O         -0.22992        1.82860       -2.20618
C          0.22291        4.01731       -1.46545
H          0.96455        4.55161       -0.86284
H          0.28248        4.31300       -2.52127
H         -0.78870        4.26448       -1.10815
H         -0.13972        0.87384       -1.96095
Pd         1.61140        0.09634       -0.11939
O          3.71375        0.07437        0.57011
C          3.58993       -1.17125        0.61618
O          2.47890       -1.69783        0.25878
C          4.68672       -2.06189        1.10525
H          4.48676       -2.32124        2.15629
H          4.70535       -2.99550        0.52783
H          5.65130       -1.54360        1.04568
H         -4.43079       -2.93815       -0.64657
H         -3.77591       -3.41338       -2.22817
H         -4.64145       -1.87413       -2.04922
