45
TwoHchromene_H8_deriv1_Int2_Sub20.log	Energy: -1019005.3570935
C          0.14997       -0.48169       -0.39302
C         -0.36976       -1.66280       -0.92192
C         -0.77604        0.43078        0.12545
C         -1.74412       -1.90646       -0.94248
H          0.31345       -2.42791       -1.29906
C         -2.17151        0.21978        0.09880
O         -0.26697        1.60769        0.59764
C         -2.67610       -0.99521       -0.44151
H         -2.08239       -2.85450       -1.35683
C         -2.97584        1.31706        0.62316
C         -0.95869        2.29474        1.56732
C         -4.17535       -1.33354       -0.47270
C         -2.41564        2.32155        1.31655
H         -4.04920        1.33345        0.45097
Cl        -0.64429        1.54200        3.22510
H         -0.50025        3.28707        1.64203
H         -3.00339        3.13768        1.74002
O          2.15000        1.64149       -1.02235
C          1.47283        2.10513       -1.93606
O          0.50856        1.45700       -2.52882
C          1.69454        3.48890       -2.44192
H          2.64858        3.87688       -2.07056
H          1.66153        3.50225       -3.53943
H          0.87208        4.12370       -2.07762
H          0.35718        0.60492       -2.04838
Pd         2.09542       -0.25571       -0.21524
O          4.18260       -0.77749        0.30254
C          3.71579       -1.87342        0.69014
O          2.46025       -2.09141        0.56735
C          4.57246       -2.92381        1.32130
H          4.46640       -2.85368        2.41482
H          4.23666       -3.92348        1.01588
H          5.62470       -2.76477        1.05657
C         -4.42686       -2.75192       -0.99914
H         -5.50790       -2.95648       -0.98005
H         -4.08805       -2.87616       -2.03843
H         -3.93356       -3.51462       -0.37842
C         -4.76385       -1.28953        0.94785
H         -4.66865       -0.31029        1.43283
H         -5.83425       -1.54786        0.92027
H         -4.25434       -2.02160        1.59258
C         -4.92090       -0.38077       -1.42396
H         -5.99095       -0.64045       -1.45594
H         -4.84527        0.67642       -1.14017
H         -4.51974       -0.47271       -2.44478
