36
TwoHchromene_H8_deriv1_Int2_Sub17.log	Energy: -1131804.8915340
C          0.14556       -0.51670       -0.35421
C         -0.32482       -1.74806       -0.82172
C         -0.80730        0.40606        0.09972
C         -1.68971       -2.03975       -0.85668
H          0.39353       -2.50778       -1.13848
C         -2.18884        0.14595        0.07468
O         -0.35868        1.62769        0.50472
C         -2.61707       -1.10369       -0.41554
H         -2.03342       -3.00860       -1.22010
C         -3.07427        1.20301        0.53865
C         -1.10391        2.34248        1.41987
C         -4.08458       -1.43265       -0.45352
C         -2.56429        2.26919        1.17438
H         -4.14825        1.11831        0.37312
Cl        -0.75687        1.73713        3.12286
H         -0.70774        3.36405        1.41683
H         -3.19283        3.06910        1.56942
O          2.10123        1.65638       -0.99288
C          1.44335        2.08028       -1.93942
O          0.54372        1.37569       -2.57043
C          1.61041        3.47102       -2.44371
H          2.52329        3.91326       -2.03188
H          1.62603        3.47849       -3.54161
H          0.73777        4.05945       -2.12042
H          0.42612        0.51784       -2.09789
Pd         2.08443       -0.23657       -0.17998
O          4.17477       -0.69576        0.34207
C          3.74182       -1.80386        0.73546
O          2.49165       -2.05575        0.61143
C          4.62677       -2.82561        1.37123
H          4.51843       -2.75289        2.46436
H          4.31909       -3.83574        1.07078
H          5.67407       -2.63809        1.10573
F         -4.64399       -1.35014        0.75965
F         -4.31189       -2.66269       -0.91343
F         -4.76115       -0.58479       -1.24555
