42
TwoHchromene_H8_deriv1_Int2_Sub13.log	Energy: -994361.4050265
C         -0.19813        0.41463        0.15247
C         -0.26454        1.80320        0.31114
C         -1.39511       -0.26683       -0.09770
C         -1.47435        2.51402        0.25126
H          0.67096        2.35006        0.45848
C         -2.62480        0.40812       -0.16641
O         -1.36465       -1.62955       -0.18916
C         -2.64398        1.79724        0.01420
C         -1.49760        4.01900        0.41608
C         -3.81457       -0.38760       -0.40120
C         -2.34864       -2.26880       -0.91074
H         -3.60263        2.32158       -0.04038
C         -3.70105       -1.68166       -0.74112
H         -4.79421        0.08790       -0.30610
Cl        -1.92272       -2.24749       -2.70987
H         -2.29332       -3.33099       -0.64731
H         -4.56364       -2.31259       -0.96220
O          1.06055       -2.02007        1.32952
C          0.33969       -2.00080        2.32367
O         -0.29957       -0.94147        2.73807
C          0.11816       -3.22225        3.14667
H          0.85773       -3.98778        2.89048
H          0.15762       -2.97400        4.21551
H         -0.89281       -3.60091        2.93045
H         -0.19456       -0.22495        2.06488
Pd         1.57112       -0.44315        0.10517
O          3.70052       -0.72365       -0.43946
C          3.58224        0.34496       -1.08136
O          2.45975        0.96143       -1.05912
C          4.69917        0.90951       -1.89942
H          4.54033        0.62957       -2.95220
H          4.69795        2.00585       -1.84080
H          5.65955        0.49916       -1.56498
H         -2.55578        4.32838        0.36222
C         -0.95873        4.44854        1.77975
H         -1.03887        5.53951        1.90676
H         -1.51317        3.96636        2.59897
H          0.10392        4.17983        1.89059
C         -0.75223        4.71300       -0.72389
H         -1.16749        4.42861       -1.70205
H         -0.81774        5.80810       -0.62626
H          0.31480        4.43922       -0.72518
