36
TwoHchromene_H8_deriv1_Int2_Sub14.log	Energy: -945061.9599203
C          0.16299        0.75317       -0.37108
C          0.07155        2.06987       -0.83578
C          1.42999        0.28188       -0.00686
C          1.19334        2.90620       -0.96422
H         -0.91655        2.46925       -1.08293
C          2.57489        1.08676       -0.12007
O          1.55404       -1.02194        0.38188
C          2.43729        2.39438       -0.60382
C          1.03616        4.31686       -1.45356
C          3.84742        0.49928        0.25346
C          2.60475       -1.37384        1.20006
H          3.33131        3.01840       -0.69104
C          3.88153       -0.69215        0.87179
H          4.76678        1.04741        0.03174
Cl         2.18100       -1.00485        2.96170
H          2.67049       -2.46737        1.17644
H          4.81029       -1.15905        1.20412
O         -0.80491       -1.99620       -0.99765
C         -0.09262       -2.09942       -1.99278
O          0.42691       -1.08275       -2.62425
C          0.25865       -3.43043       -2.56177
H         -0.39748       -4.20214       -2.14628
H          0.19747       -3.40490       -3.65773
H          1.30280       -3.65242       -2.29206
H          0.24489       -0.26089       -2.10543
Pd        -1.48845       -0.27747       -0.08873
O         -3.55506       -0.69913        0.58229
C         -3.56245        0.48095        1.00191
O         -2.52732        1.21171        0.81674
C         -4.72877        1.05521        1.74031
H         -4.51834        1.00992        2.81994
H         -4.86839        2.11026        1.47054
H         -5.63422        0.47299        1.53117
H          0.46858        4.92446       -0.73039
H          0.48584        4.35211       -2.40647
H          2.01040        4.80203       -1.60642
