33
TwoHchromene_H8_deriv1_Int2_Sub26.log	Energy: -1208726.9728999
C         -0.39606        1.09705       -0.57142
C         -0.89048        2.27997       -1.14004
C          0.97008        1.06149       -0.27332
C         -0.05525        3.36481       -1.42168
H         -1.96170        2.35753       -1.34188
C          1.83153        2.13633       -0.54218
O          1.47643       -0.10843        0.23080
C          1.29962        3.29320       -1.12514
H         -0.47279        4.27078       -1.86624
C          3.23198        1.97292       -0.21102
C          2.68396       -0.15337        0.86230
H          1.96440        4.13410       -1.33765
C          3.65989        0.88287        0.44371
H          3.93573        2.75987       -0.49367
Cl         2.41859       -0.00931        2.66403
Cl         3.35850       -1.79478        0.56482
H          4.69682        0.72917        0.74272
O         -0.52856       -1.89698       -0.71523
C          0.18640       -1.96123       -1.71264
O          0.35383       -0.96829       -2.54438
C          0.95861       -3.18914       -2.03770
H          0.50638       -4.05754       -1.54711
H          1.03077       -3.32969       -3.12321
H          1.97398       -3.04220       -1.63613
H         -0.09038       -0.16998       -2.17290
Pd        -1.67598       -0.31612       -0.07453
O         -3.53202       -1.20154        0.72406
C         -3.88877       -0.02436        0.96015
O         -3.10682        0.93556        0.63023
C         -5.18003        0.29534        1.64088
H         -4.97962        0.47616        2.70817
H         -5.61491        1.21208        1.22158
H         -5.87566       -0.54741        1.54931
