45
TwoHchromene_H8_deriv1_Int2_Sub28.log	Energy: -1019012.6934698
C          0.73089        1.17315        0.67878
C          1.34089        2.31162        1.22548
C         -0.63929        1.24746        0.40029
C          0.60976        3.47140        1.49706
H          2.41651        2.29560        1.41819
C         -1.39141        2.40789        0.64940
O         -1.26101        0.12154       -0.04692
C         -0.74834        3.51969        1.20632
H          1.11118        4.34268        1.92412
C         -2.79928        2.37173        0.30969
C         -2.43353        0.19447       -0.77697
H         -1.32881        4.42467        1.40301
C         -3.30720        1.32935       -0.36549
H         -3.43008        3.22007        0.58743
Cl        -1.95050        0.56246       -2.55220
C         -3.09806       -1.20477       -0.71237
H         -4.35029        1.30315       -0.68046
O          0.78897       -1.80840        1.10798
C          0.16601       -1.75222        2.16612
O         -0.04768       -0.64759        2.82359
C         -0.42982       -2.97502        2.77430
H          0.11554       -3.86240        2.43481
H         -0.43524       -2.90187        3.86874
H         -1.47337       -3.05154        2.43074
H          0.30327        0.11303        2.29373
Pd         1.84163       -0.34635        0.10533
O          3.47885       -1.40277       -0.93745
C          3.82809       -0.27042       -1.34478
O          3.16321        0.75639       -0.96723
C          4.97672       -0.08198       -2.28283
H          4.58143        0.03554       -3.30354
H          5.52809        0.83334       -2.03055
H          5.63619       -0.95771       -2.25611
C         -4.32101       -1.28449       -1.62556
H         -4.75979       -2.29110       -1.55502
H         -5.10625       -0.56788       -1.34185
H         -4.04613       -1.10000       -2.67286
C         -2.08949       -2.28077       -1.12029
H         -1.20617       -2.27871       -0.46840
H         -2.56615       -3.27123       -1.06436
H         -1.74571       -2.12061       -2.15152
C         -3.53414       -1.42566        0.74210
H         -3.92730       -2.44678        0.86287
H         -2.69182       -1.28836        1.43465
H         -4.32506       -0.72140        1.04153
