33
TwoHchromene_H8_Int2_Sub18.log	Energy: -920410.0339336
C          0.14487       -0.46320        0.94349
C         -0.02849       -1.19522        2.12655
C          1.44223       -0.37543        0.42448
C          1.05262       -1.79377        2.78035
H         -1.03739       -1.31756        2.52856
C          2.54481       -0.97356        1.06138
O          1.64179        0.38954       -0.68885
C          2.33177       -1.68188        2.25071
H          0.88683       -2.35686        3.70141
C          3.84944       -0.79866        0.45174
C          2.71604        0.11162       -1.50636
H          3.18493       -2.14789        2.75023
C          3.95201       -0.26144       -0.77428
H          4.73620       -1.12090        1.00362
Cl         2.28471       -1.26072       -2.66469
H          2.84025        0.97673       -2.16733
H          4.90679       -0.14187       -1.28916
O         -0.67465        2.10303       -0.34326
C          0.02609        2.78548        0.39932
O          0.47922        2.37447        1.55176
C          0.43951        4.16674        0.02534
H         -0.15828        4.52229       -0.82016
H          0.34499        4.83896        0.88841
H          1.50239        4.14091       -0.26058
H          0.25771        1.41651        1.65520
Pd        -1.43838        0.21877       -0.00477
O         -3.46251        0.19550       -0.89500
C         -3.53178       -0.98518       -0.48232
O         -2.54439       -1.47166        0.17214
C         -4.71585       -1.85559       -0.75619
H         -4.48404       -2.50449       -1.61476
H         -4.92065       -2.50274        0.10671
H         -5.58975       -1.24069       -1.00267
