36
TwoHchromene_H8_Int2_Sub17.log	Energy: -843479.5579782
C         -0.19292        0.38329        1.16126
C         -0.51096        0.46654        2.52604
C          1.16131        0.33080        0.81330
C          0.48271        0.52471        3.50455
H         -1.56277        0.46162        2.82294
C          2.17871        0.38601        1.78298
O          1.48106        0.31438       -0.51412
C          1.82215        0.48576        3.13114
H          0.20706        0.59029        4.55924
C          3.55738        0.36062        1.31810
C          2.72273       -0.20753       -0.91657
H          2.61183        0.52887        3.88572
C          3.84015        0.09861        0.03552
H          4.35450        0.56923        2.03664
C          2.57505       -1.71402       -1.16220
H          2.92576        0.22573       -1.90918
H          4.86309        0.06905       -0.34331
O         -0.94919        1.54170       -1.48761
C         -0.39970        2.61479       -1.25346
O         -0.09794        3.03154       -0.05494
C         -0.00962        3.54311       -2.35124
H         -0.49588        3.24582       -3.28601
H         -0.26366        4.57727       -2.08344
H          1.08343        3.49050       -2.47198
H         -0.27719        2.30157        0.58832
Pd        -1.64430        0.14047       -0.14618
O         -3.50197       -0.69141       -1.01749
C         -3.56461       -1.39323        0.01786
O         -2.66310       -1.25456        0.91688
C         -4.64018       -2.41072        0.22568
H         -4.24000       -3.40352       -0.03146
H         -4.94228       -2.43507        1.28094
H         -5.49722       -2.19487       -0.42348
F          2.26635       -2.36902       -0.04677
F          3.72737       -2.20703       -1.62951
F          1.62708       -1.96103       -2.06152
