49
TwoHchromene_H8_Int2_Sub27.log	Energy: -779235.5581388
C          1.20283        1.28240        0.26558
C          2.10965        2.26800        0.68524
C         -0.04834        1.69798       -0.21171
C          1.77320        3.62233        0.65710
H          3.10465        1.96425        1.02044
C         -0.40490        3.06081       -0.24506
O         -0.94701        0.74647       -0.55526
C          0.51936        4.01260        0.19479
H          2.49467        4.37138        0.99069
C         -1.74542        3.39079       -0.71042
C         -1.99731        1.05418       -1.46607
H          0.24089        5.06963        0.17197
C         -2.51493        2.44900       -1.27130
H         -2.10052        4.41844       -0.59456
H         -1.58710        0.96278       -2.49602
C         -3.06482       -0.02430       -1.29356
H         -3.51699        2.67635       -1.64499
O          0.19908       -1.36989        1.24290
C         -0.42040       -0.87774        2.18362
O         -0.27272        0.35141        2.58846
C         -1.41289       -1.67332        2.96133
H         -1.41890       -2.71058        2.61184
H         -1.16295       -1.62631        4.03073
H         -2.41052       -1.22721        2.83775
H          0.34245        0.82229        1.96888
Pd         1.77973       -0.59512        0.16505
O          3.05922       -2.32921       -0.38290
C          3.80855       -1.48362       -0.92256
O          3.49501       -0.24379       -0.86406
C          5.04931       -1.87665       -1.66058
H          4.84894       -1.82802       -2.74185
H          5.86039       -1.16944       -1.44143
H          5.34089       -2.90002       -1.39607
H         -3.84410        0.19604       -2.04839
C         -3.71185        0.02936        0.09030
H         -4.16775        1.01888        0.25787
H         -2.91194       -0.06357        0.84393
C         -4.74631       -1.07323        0.28613
H         -5.15258       -1.03398        1.31050
H         -5.60181       -0.89062       -0.38928
C         -4.16788       -2.45279       -0.00897
H         -4.94467       -3.22673        0.10153
H         -3.38625       -2.68808        0.73594
C         -3.55303       -2.50418       -1.40280
H         -4.35203       -2.37434       -2.15567
H         -3.10809       -3.49438       -1.59093
C         -2.50164       -1.41608       -1.58233
H         -1.65680       -1.60059       -0.89786
H         -2.08522       -1.44386       -2.60304
