37
TwoHchromene_H8_deriv1_Int2_Sub8.log	Energy: -992225.5657682
C          0.30578       -0.61459       -0.76205
C          0.31560       -1.31088       -1.99044
C          1.53466       -0.08152       -0.33625
C          1.51761       -1.46343       -2.71508
O         -0.73378       -1.90866       -2.57720
C          2.73704       -0.21114       -1.04519
O          1.54747        0.51463        0.89273
C          2.69881       -0.92036       -2.25532
H          1.46972       -2.01760       -3.65373
C          3.93157        0.36780       -0.46969
C          2.50298        1.47142        1.16512
H          3.61883       -1.04251       -2.83235
C          3.84213        1.16504        0.60859
H          4.89804        0.15050       -0.93206
Cl         1.94116        3.10866        0.50364
H          2.49660        1.62065        2.25034
H          4.70839        1.65117        1.05985
O         -0.87805       -1.20045        1.93805
C         -0.16645       -2.19224        2.08913
O          0.57500       -2.70594        1.15190
C         -0.09252       -2.89595        3.40163
H         -0.86128       -2.51185        4.07979
H         -0.20473       -3.97857        3.25235
H          0.90477       -2.72621        3.83515
H          0.52467       -2.11950        0.34703
Pd        -1.25988       -0.00358        0.30239
O         -3.00443        1.19440        0.87848
C         -2.90268        1.74089       -0.24571
O         -1.99324        1.33114       -1.04852
C         -3.78545        2.87048       -0.66497
H         -3.23365        3.81370       -0.53189
H         -4.03884        2.77942       -1.72942
H         -4.69006        2.89661       -0.04571
C         -2.03524       -1.83964       -2.05553
H         -2.09167       -2.25205       -1.03294
H         -2.41556       -0.80682       -2.04869
H         -2.65746       -2.45563       -2.71843
