36
TwoHchromene_H8_Int2_Sub14.log	Energy: -656733.3240959
C         -0.32341       -0.62627       -0.28687
C         -0.46299       -1.75475       -1.10447
C         -1.46734       -0.17031        0.38455
C         -1.69749       -2.38093       -1.27608
H          0.42211       -2.16474       -1.59749
C         -2.72803       -0.77707        0.20062
O         -1.35950        0.94892        1.14767
C         -2.84351       -1.90358       -0.63792
H         -1.76994       -3.26247       -1.91827
C         -3.86837       -0.14484        0.85653
C         -2.26694        1.08591        2.22391
C         -4.16966       -2.57547       -0.84531
C         -3.67070        0.77481        1.81160
H         -4.87893       -0.41474        0.54258
H         -1.94751        0.42590        3.05863
H         -2.16252        2.12258        2.57435
H         -4.50159        1.27654        2.31381
O          0.88844        2.09049       -0.24821
C          0.04351        2.54556       -1.01490
O         -0.68385        1.81663       -1.81452
C         -0.23638        4.00731       -1.07976
H          0.57701        4.56835       -0.60808
H         -0.38767        4.32342       -2.12006
H         -1.17397        4.19429       -0.53341
H         -0.53417        0.86222       -1.59685
Pd         1.47100        0.12900       -0.00447
O          3.66129        0.15076        0.38797
C          3.56786       -1.09643        0.43934
O          2.42757       -1.64572        0.24636
C          4.74310       -1.96948        0.74840
H          4.68778       -2.27692        1.80397
H          4.71151       -2.87956        0.13474
H          5.67785       -1.41972        0.58591
H         -4.89950       -1.90023       -1.32170
H         -4.61141       -2.90761        0.10745
H         -4.06446       -3.45688       -1.49226
