42
TwoHchromene_H8_deriv1_Int2_Sub21.log	Energy: -994360.0779318
C         -0.00150       -0.49020       -0.43471
C         -0.47119       -1.68403       -0.99065
C         -0.96610        0.40714        0.03825
C         -1.83746       -1.95779       -1.08769
H          0.24963       -2.43146       -1.33165
C         -2.34847        0.15735       -0.05536
O         -0.52460        1.60173        0.53261
C         -2.79624       -1.05692       -0.62626
H         -2.15062       -2.90645       -1.52582
C         -3.23292        1.20364        0.43032
C         -1.29879        2.26567        1.45731
C         -4.27652       -1.38206       -0.66485
C         -2.74623        2.23244        1.14329
H         -4.30073        1.14863        0.21201
Cl        -1.03749        1.53905        3.13625
H         -0.88738        3.27725        1.54621
H         -3.38200        3.02232        1.54675
O          1.98613        1.67711       -0.93526
C          1.35138        2.13703       -1.88081
O          0.43861        1.47408       -2.53561
C          1.56813        3.53204       -2.35671
H          2.48732        3.93902       -1.92305
H          1.60244        3.55797       -3.45399
H          0.70868        4.14143       -2.03730
H          0.28040        0.61308       -2.07358
Pd         1.93005       -0.23411       -0.16433
O          4.00091       -0.72949        0.43978
C          3.53658       -1.83993        0.78660
O          2.29191       -2.07698        0.60264
C          4.38211       -2.88694        1.43811
H          4.22358       -2.83986        2.52650
H          4.07958       -3.88632        1.09881
H          5.44246       -2.70431        1.22628
H         -4.81039       -0.45343       -0.93180
C         -4.65570       -2.42000       -1.71457
H         -5.75037       -2.51653       -1.77163
H         -4.28541       -2.14467       -2.71348
H         -4.25711       -3.41599       -1.46608
C         -4.75793       -1.81317        0.72410
H         -4.53168       -1.05493        1.48832
H         -5.84475       -1.99177        0.72635
H         -4.25729       -2.74572        1.02841
