36
TwoHchromene_H8_Int2_Sub6.log	Energy: -656734.0215852
C         -0.44738       -0.66865       -0.42061
C         -0.46391       -1.59611       -1.48510
C         -1.58705       -0.53417        0.38233
C         -1.62882       -2.33809       -1.72632
C          0.75355       -1.79476       -2.34035
C         -2.76326       -1.26933        0.12885
O         -1.57399        0.41430        1.35366
C         -2.76051       -2.17382       -0.93534
H         -1.64205       -3.05357       -2.55236
C         -3.92967       -0.98686        0.95487
C         -2.43394        0.22737        2.46303
H         -3.66728       -2.74684       -1.14680
C         -3.79713       -0.24491        2.06281
H         -4.90125       -1.37935        0.64257
H         -1.96632       -0.49140        3.16945
H         -2.47531        1.19925        2.97548
H         -4.64773       -0.00802        2.70693
O          0.37982        2.17570       -0.23014
C         -0.53753        2.55459       -0.95498
O         -1.26182        1.76283       -1.69273
C         -0.91084        3.99568       -1.03794
H         -0.13687        4.61324       -0.57083
H         -1.06865        4.28511       -2.08558
H         -1.86568        4.13702       -0.50869
H         -1.02486        0.82122       -1.48089
Pd         1.19320        0.30589        0.06858
O          3.29329        0.62153        0.73969
C          3.36886       -0.62724        0.78379
O          2.34624       -1.32671        0.46290
C          4.62876       -1.32346        1.19428
H          4.95482       -0.93751        2.17042
H          4.48038       -2.40854        1.24422
H          5.42120       -1.08806        0.46866
H          1.59950       -2.13709       -1.72457
H          1.06889       -0.84878       -2.80959
H          0.56907       -2.53003       -3.13599
