42
TwoHchromene_H8_Int2_Sub29.log	Energy: -706034.5949409
C          0.37046        1.25459        0.17869
C          0.91662        2.52752        0.40215
C         -1.00139        1.16918       -0.10108
C          0.12043        3.67457        0.38728
H          1.99304        2.61721        0.56916
C         -1.82245        2.31511       -0.10182
O         -1.55859       -0.05571       -0.26791
C         -1.24491        3.56463        0.14419
H          0.57119        4.65335        0.56570
C         -3.25111        2.10483       -0.29054
C         -2.72276       -0.15950       -1.08049
H         -1.88341        4.45208        0.14740
C         -3.70506        0.92086       -0.72478
H         -3.93625        2.92355       -0.05377
H         -2.40581       -0.02840       -2.14037
C         -3.25434       -1.58572       -0.92912
H         -4.77264        0.74007       -0.86427
O          0.36486       -1.53158        1.22888
C         -0.35467       -1.23667        2.18094
O         -0.46829       -0.03004        2.65947
C         -1.19320       -2.26162        2.86130
H         -0.80427       -3.26427        2.65467
H         -1.24744       -2.06663        3.93973
H         -2.21178       -2.17952        2.44988
H         -0.00487        0.59675        2.05017
Pd         1.58202       -0.29448        0.11569
O          3.39440       -1.47405       -0.40344
C          3.78696       -0.43704       -0.98445
O          3.04975        0.60974       -0.95803
C          5.07983       -0.38699       -1.73549
H          4.86729       -0.47276       -2.81216
H          5.57712        0.57811       -1.57066
H          5.72785       -1.21794       -1.43229
H         -3.61326       -1.67959        0.11329
C         -4.42637       -1.83572       -1.87151
H         -4.78976       -2.86841       -1.76324
H         -5.27959       -1.16761       -1.68438
H         -4.11865       -1.70310       -2.92187
C         -2.14835       -2.60950       -1.16013
H         -1.30690       -2.46581       -0.47027
H         -2.53656       -3.63184       -1.03462
H         -1.75369       -2.52719       -2.18640
