45
Azulene_H11_Int1_Sub28_f.log	Energy: -707385.5942697
C          1.13812       -1.47271        1.01405
C          0.56781       -1.00748        2.24461
C          0.48126       -1.64271       -0.22757
C         -0.70155       -0.56124        2.49696
H          1.26735       -0.99443        3.08518
C         -0.86908       -1.38590       -0.56054
H          1.06663       -2.14943       -1.00117
C         -1.81676       -0.45713        1.61918
H         -0.89237       -0.22796        3.52064
C         -1.93441       -0.79328        0.29360
C         -1.43250       -1.62418       -1.80086
H         -2.71264       -0.05082        2.09147
C         -3.11867       -0.68338       -0.52788
C         -2.78777       -1.19736       -1.77508
H         -0.91190       -2.05252       -2.65745
C         -4.46897       -0.10308       -0.14339
H         -3.46330       -1.26413       -2.62677
O          3.12250       -0.64757       -0.93961
C          4.15835       -0.84040       -0.16705
O          4.17414       -0.63324        1.03312
C          5.36189       -1.34840       -0.92667
H          5.07869       -2.17034       -1.59858
H          5.75736       -0.53543       -1.55392
H          6.13514       -1.67413       -0.22088
H          2.13269       -1.91243        1.11009
Pd         1.60095        0.30673       -0.11910
O          1.85217        2.34270       -0.70961
C          0.76625        2.61400       -0.12824
O          0.15306        1.66553        0.45975
C          0.18816        3.98802       -0.15132
H         -0.46755        4.07673       -1.03138
H         -0.41670        4.16139        0.74769
H          0.98728        4.73459       -0.23883
C         -4.31311        1.37014        0.27025
H         -5.29628        1.80316        0.51433
H         -3.66130        1.49927        1.14484
H         -3.87491        1.95611       -0.55188
C         -5.42310       -0.14991       -1.34091
H         -5.59955       -1.18239       -1.67887
H         -6.39635        0.28026       -1.05988
H         -5.03399        0.42994       -2.19155
C         -5.11198       -0.91687        0.99197
H         -6.10890       -0.51312        1.23022
H         -5.23259       -1.96913        0.69318
H         -4.51899       -0.90285        1.91646
