37
Azulene_H18_Int1_Sub24.log	Energy: -680609.1162823
C         -0.17460        0.62955       -1.41086
C          0.56125        1.35446       -0.39940
C          0.77929       -0.18768       -2.12488
C          1.93784        0.88346       -0.44951
C          0.02709        2.35857        0.41405
C          2.01828       -0.05805       -1.52829
H          0.52969       -0.81615       -2.97813
C          2.99949        1.20166        0.38517
C          0.68135        3.07768        1.41208
H         -1.03882        2.55319        0.24095
O          3.17146       -0.67866       -1.79425
C          3.02266        2.12291        1.43252
H          3.92995        0.66646        0.17268
C          1.99639        2.95932        1.87199
H          0.06955        3.82555        1.92464
H          3.97334        2.21532        1.96498
H          2.26041        3.62417        2.70052
O         -2.77469       -0.35259       -0.51506
C         -3.37011        0.79372       -0.58090
O         -2.84839        1.88904       -0.41908
C         -4.84693        0.66160       -0.88864
H         -5.28602        1.65292       -1.05213
H         -4.99728        0.02381       -1.77108
H         -5.34923        0.16770       -0.04357
H         -1.07635        1.04457       -1.86351
Pd        -0.91626       -0.66160        0.08491
O         -1.11534       -2.16721        1.66619
C          0.13636       -2.18685        1.72606
O          0.79538       -1.41659        0.94786
C          0.86903       -3.10231        2.65286
H          1.15973       -4.00848        2.09928
H          1.78541       -2.61984        3.01727
H          0.22146       -3.39537        3.48821
C          3.14373       -1.66086       -2.79680
H          2.42274       -2.45946       -2.55068
H          2.87710       -1.22754       -3.77663
H          4.15220       -2.08806       -2.85642
