37
Azulene_H8_Int1_Sub32.log	Energy: -680607.4814068
C          0.80011       -1.59909        0.81228
C          0.05349       -1.27834        1.98218
C          0.36690       -1.64210       -0.53587
C         -1.26569       -0.91155        2.08521
H          0.62356       -1.33031        2.91300
C         -0.93390       -1.38079       -1.06438
H          1.07479       -2.09035       -1.23806
C         -2.23611       -0.76467        1.06839
H         -1.63035       -0.70351        3.09633
C         -2.06569       -0.98119       -0.40003
H         -1.02728       -1.50799       -2.14735
C         -3.54978       -0.39900        1.27053
C         -3.32321       -0.71953       -1.01103
H         -4.02480       -0.16541        2.22211
C         -4.21059       -0.36723       -0.00041
H         -3.52145       -0.78889       -2.07815
O         -5.49339       -0.03496       -0.08983
O          2.96984       -0.54082       -1.00849
C          3.93198       -0.84145       -0.17756
O          3.83438       -0.81654        1.03626
C          5.21048       -1.22322       -0.88741
H          5.00679       -1.93613       -1.69828
H          5.64665       -0.32300       -1.34583
H          5.92089       -1.64752       -0.16808
H          1.80689       -1.97848        1.00495
Pd         1.35543        0.28574       -0.23130
O          1.71052        2.38485       -0.33930
C          0.55306        2.57128        0.12820
O         -0.15618        1.54424        0.37894
C          0.03616        3.93934        0.41458
H         -1.06086        3.94260        0.40375
H          0.37818        4.23977        1.41707
H          0.44088        4.65534       -0.31199
C         -6.06817       -0.02643       -1.37302
H         -5.55942        0.69715       -2.03235
H         -6.02249       -1.02653       -1.83651
H         -7.11726        0.26905       -1.25141
