42
Azulene_H16_Int1_Sub29_f.log	Energy: -682742.8314524
C          1.08258       -1.40068        1.37366
C         -0.00231       -0.94452        2.14743
C          0.66004       -1.55424        0.01539
C         -1.12880       -0.82410        1.32694
H          0.03715       -0.68064        3.20334
C         -0.75332       -1.24021       -0.02579
H          1.16134       -2.17086       -0.73260
C         -2.39474       -0.34803        1.72791
C         -1.54928       -1.32741       -1.14475
C         -3.55182       -0.21888        0.99434
H         -2.46072       -0.04645        2.77835
C         -2.91578       -1.01613       -1.29248
H         -1.04587       -1.67847       -2.05161
C         -3.82160       -0.51789       -0.36875
H         -4.40390        0.17608        1.55507
H         -3.31625       -1.18139       -2.29736
C         -5.23972       -0.25769       -0.85106
O          3.15348       -0.68869       -1.01475
C          4.11108       -1.14126       -0.25555
O          4.10491       -1.14923        0.96333
C          5.28213       -1.66361       -1.05977
H          4.93497       -2.32496       -1.86578
H          5.79750       -0.81487       -1.53405
H          5.97982       -2.19240       -0.39952
H          2.08598       -1.64004        1.73232
Pd         1.66305        0.31056       -0.18903
O          2.16970        2.39052       -0.42968
C          1.05125        2.67674        0.07036
O          0.28483        1.71906        0.41767
C          0.60695        4.09325        0.22952
H          1.46460        4.72900        0.48464
H          0.19825        4.44507       -0.73028
H         -0.17634        4.16631        0.99402
H         -5.26900       -0.54858       -1.91376
C         -6.25948       -1.12422       -0.11177
H         -7.26492       -0.97549       -0.53448
H         -6.00988       -2.19270       -0.19113
H         -6.31145       -0.86947        0.95848
C         -5.59706        1.22697       -0.77378
H         -4.87281        1.84213       -1.32800
H         -6.59552        1.40264       -1.20269
H         -5.61717        1.58731        0.26681
