49
Azulene_H18_Int1_Sub27.log	Energy: -755942.3643240
C          1.32045       -0.96836       -1.32935
C          0.42530       -1.51433       -0.32705
C          0.49115       -0.31938       -2.30473
C         -0.92593       -1.08219       -0.67032
C          0.88150       -2.30533        0.72533
C         -0.82753       -0.35969       -1.89681
H          0.85946        0.14083       -3.22214
C         -2.10918       -1.26644        0.08259
C          0.12483       -2.87580        1.74597
H          1.96857       -2.44934        0.73968
H         -1.65234        0.12722       -2.41181
C         -2.20168       -2.01510        1.25904
C         -3.35298       -0.55580       -0.40818
C         -1.23941       -2.73257        1.97474
H          0.67518       -3.48547        2.46787
H         -3.19989       -2.05899        1.69878
H         -1.62203       -3.24887        2.86094
O          3.76283        0.38256       -0.58849
C          4.38436       -0.68117       -0.18646
O          3.86793       -1.65930        0.33568
C          5.87725       -0.60445       -0.42482
H          6.34180       -1.57253       -0.20278
H          6.08519       -0.30556       -1.46176
H          6.30678        0.17010        0.22794
H          2.28242       -1.43341       -1.54798
Pd         1.86130        0.71884       -0.17513
O          1.86653        2.51409        1.06939
C          0.61432        2.46109        1.05836
O          0.05334        1.50820        0.41757
C         -0.22958        3.48782        1.74153
H         -0.59138        4.20656        0.99019
H         -1.10615        3.01065        2.19997
H          0.35910        4.02752        2.49304
H         -3.29665       -0.53374       -1.50886
C         -3.34522        0.90734        0.07331
H         -2.37544        1.37330       -0.15599
H         -3.42973        0.90573        1.17544
C         -4.50195        1.69107       -0.53470
H         -4.50074        2.72274       -0.14726
H         -4.34644        1.77244       -1.62600
C         -5.84543        1.02187       -0.26579
H         -6.65781        1.57305       -0.76610
H         -6.06113        1.06756        0.81720
C         -5.84193       -0.43743       -0.70914
H         -5.74626       -0.48754       -1.80887
H         -6.80235       -0.91687       -0.46118
C         -4.69277       -1.21057       -0.06907
H         -4.84976       -1.21705        1.02374
H         -4.69871       -2.26274       -0.39797
