36
Azulene_H18_Int1_Sub25.log	Energy: -820182.3831304
C          0.76955       -1.05235       -1.27355
C         -0.17746       -1.37788       -0.23142
C          0.02787       -0.39137       -2.30701
C         -1.46871       -0.80402       -0.63105
C          0.15882       -2.12810        0.89160
C         -1.28828       -0.22443       -1.91590
H          0.45015       -0.06699       -3.25866
C         -2.64102       -0.77341        0.14601
C         -0.66877       -2.49108        1.95623
H          1.21471       -2.42307        0.93064
H         -2.05189        0.30300       -2.48100
C         -2.85636       -1.37001        1.38355
C         -3.81703       -0.00514       -0.44309
C         -1.99600       -2.14365        2.17096
H         -0.20095       -3.10392        2.73171
H         -3.85315       -1.22359        1.80223
H         -2.43904       -2.51861        3.09834
O          3.33281        0.06582       -0.51692
C          3.82029       -1.04369       -0.05774
O          3.18033       -1.93795        0.47888
C          5.31804       -1.14167       -0.24629
H          5.66428       -2.14605        0.02472
H          5.58992       -0.90671       -1.28483
H          5.81068       -0.39504        0.39426
H          1.67665       -1.63569       -1.43262
Pd         1.47147        0.63266       -0.18486
O          1.66168        2.48350        0.93275
C          0.41032        2.57891        0.88866
O         -0.24078        1.65095        0.29992
C         -0.31381        3.74416        1.47555
H         -0.16998        4.61688        0.82056
H         -1.38620        3.52887        1.55645
H          0.11170        3.99189        2.45722
F         -4.88979       -0.02513        0.34952
F         -4.18900       -0.52374       -1.61752
F         -3.50362        1.27340       -0.64883
