42
Azulene_H16_deriv1_Int1_Sub13.log	Energy: -971059.6933166
C          0.62453       -0.82790        1.45931
C         -0.57951       -0.29581        1.98921
C          0.39599       -1.38440        0.15910
C         -1.59654       -0.48439        1.06414
H         -0.67414        0.22479        2.94070
C         -1.03230       -1.19423       -0.10282
C          1.27559       -2.46853       -0.43547
C         -2.91742       -0.01119        1.23251
C         -1.70037       -1.61441       -1.22258
C         -3.99796       -0.16156        0.39714
H         -3.10298        0.53928        2.15861
C         -3.07117       -1.45826       -1.55154
H         -1.10170       -2.13119       -1.97385
C         -4.07069       -0.82457       -0.85761
Cl        -5.49725        0.54836        0.92971
H         -3.37226       -1.89568       -2.50725
H         -5.06016       -0.81751       -1.32117
O          3.05949       -0.11800       -0.15548
C          3.77390        0.16284        0.90029
O          3.33864        0.66956        1.91885
C          5.22901       -0.21099        0.73053
H          5.32325       -1.23484        0.34204
H          5.68862        0.46130       -0.00933
H          5.75204       -0.11290        1.68915
H          1.55462       -0.92351        2.02123
Pd         1.21930        0.60858       -0.17442
O          1.45369        2.57469       -0.97924
C          0.20317        2.71927       -0.91206
O         -0.48916        1.73695       -0.49065
C         -0.45364        4.00771       -1.27627
H         -0.41496        4.67873       -0.40426
H          0.09107        4.48886       -2.09866
H         -1.50442        3.84101       -1.54386
H          2.24161       -2.35134        0.07698
C          0.72215       -3.85011       -0.07926
H          1.42962       -4.63607       -0.38566
H          0.55561       -3.94710        1.00423
H         -0.23664       -4.04879       -0.58303
C          1.57609       -2.33879       -1.92701
H          1.97518       -1.34263       -2.16213
H          2.33723       -3.07977       -2.21531
H          0.69776       -2.52287       -2.56393
