45
Azulene_H8_deriv1_Int1_Sub20.log	Energy: -995700.6961769
C          0.08644       -0.40390       -1.82539
C         -1.14573       -1.04282       -1.98357
C          0.45535        0.74069       -1.07506
C         -2.34513       -0.66756       -1.40274
H         -1.16611       -1.91989       -2.63163
C         -0.31569        1.61991       -0.23417
H          1.43579        1.10966       -1.36757
C         -2.61340        0.40475       -0.53109
Cl        -3.68767       -1.68580       -1.82737
C         -1.67306        1.43662        0.02718
C          0.47101        2.79158        0.40328
C         -3.87560        0.66800       -0.00368
C         -2.48704        2.24077        0.88384
H         -4.76998        0.08888       -0.22136
C         -3.79179        1.78096        0.85719
H         -2.15204        3.08601        1.47411
H         -4.62351        2.20953        1.41690
O          2.93510       -0.41369        0.06687
C          3.55794       -0.45539       -1.07608
O          3.03551       -0.61332       -2.16634
C          5.04793       -0.24895       -0.92020
H          5.23931        0.78016       -0.58051
H          5.44850       -0.92501       -0.15237
H          5.54765       -0.41726       -1.88135
H          0.92055       -0.79034       -2.42072
Pd         1.02048       -0.80353        0.32487
O          1.08970       -2.18167        1.95700
C         -0.17109       -2.18148        1.96531
O         -0.76591       -1.44970        1.10801
C         -0.95569       -3.02337        2.91111
H         -1.89421       -2.51914        3.17528
H         -1.20676       -3.97162        2.41113
H         -0.36152       -3.24621        3.80578
C          1.94235        2.84312       -0.03551
H          2.42387        3.68937        0.47617
H          2.49293        1.93140        0.23580
H          2.05239        3.01640       -1.11687
C         -0.14128        4.13852       -0.02350
H         -1.18824        4.26620        0.27044
H          0.44160        4.96053        0.41959
H         -0.09276        4.24698       -1.11789
C          0.49874        2.62034        1.93398
H          1.05359        3.45542        2.38856
H         -0.49532        2.57868        2.39199
H          1.02188        1.68734        2.19625
