33
Azulene_H16_Int1_Sub18_f.log	Energy: -897111.1451315
C         -0.61986       -1.36495       -1.31030
C          0.60502       -0.93650       -1.86062
C         -0.45487       -1.58810        0.09177
C          1.57188       -0.89901       -0.85222
H          0.76510       -0.63332       -2.89416
C          0.93946       -1.34811        0.39928
H         -1.11011       -2.20061        0.71320
C          2.89896       -0.46227       -1.02717
C          1.51150       -1.52309        1.63567
C          3.91496       -0.41663       -0.09538
H          3.15885       -0.12364       -2.03351
C          2.84936       -1.28252        2.01966
H          0.84275       -1.88338        2.42354
C          3.89588       -0.79427        1.27045
Cl         5.44926        0.18021       -0.66139
H          3.08643       -1.50220        3.06414
H          4.85032       -0.67388        1.78862
O         -3.04764       -0.60990        0.68721
C         -3.87065       -0.98314       -0.25258
O         -3.63548       -0.95768       -1.44831
C         -5.19792       -1.45399        0.30008
H         -5.04610       -2.14474        1.14098
H         -5.75142       -0.58531        0.68739
H         -5.78161       -1.93369       -0.49457
H         -1.55146       -1.54227       -1.85237
Pd        -1.38246        0.32436        0.18485
O         -1.81871        2.41690        0.41068
C         -0.61444        2.65710        0.13551
O          0.15377        1.66720       -0.10354
C         -0.07780        4.04914        0.11752
H         -0.85706        4.74901       -0.20990
H          0.22125        4.32476        1.14065
H          0.80424        4.11088       -0.53195
