45
Azulene_H16_Int1_Sub28_f.log	Energy: -707390.6404310
C          1.34739       -1.33545        1.44715
C          0.30624       -0.83136        2.25244
C          0.85840       -1.53964        0.11833
C         -0.85577       -0.73003        1.48182
H          0.40033       -0.52414        3.29305
C         -0.55212       -1.20684        0.13319
H          1.31431       -2.19596       -0.62492
C         -2.09847       -0.22127        1.91400
C         -1.40592       -1.32611       -0.93725
C         -3.28613       -0.10668        1.23004
H         -2.11576        0.12642        2.95208
C         -2.77596       -1.00296       -1.03987
H         -0.95250       -1.72161       -1.85232
C         -3.64009       -0.45386       -0.10599
H         -4.09656        0.32444        1.82208
H         -3.19979       -1.21295       -2.02164
C         -5.10317       -0.17293       -0.49363
O          3.31784       -0.76133       -1.05173
C          4.30360       -1.19179       -0.31618
O          4.35311       -1.14384        0.90079
C          5.43029       -1.76715       -1.14727
H          5.03875       -2.46349       -1.90188
H          5.93063       -0.94932       -1.68735
H          6.15330       -2.27111       -0.49489
H          2.36317       -1.57557        1.76874
Pd         1.87822        0.29643       -0.20839
O          2.40048        2.35685       -0.56356
C          1.30836        2.68081       -0.02956
O          0.54563        1.75077        0.39271
C          0.88891        4.10927        0.08478
H          1.76482        4.74367        0.27219
H          0.44133        4.42339       -0.87075
H          0.14193        4.22756        0.87937
C         -5.43050       -0.56805       -1.93453
H         -6.48712       -0.34177       -2.14029
H         -4.82739       -0.00841       -2.66533
H         -5.28520       -1.64431       -2.11255
C         -6.03313       -0.97138        0.43479
H         -5.90789       -0.69837        1.49237
H         -7.08397       -0.78172        0.16645
H         -5.84694       -2.05220        0.34175
C         -5.37979        1.33240       -0.34485
H         -6.42202        1.55164       -0.62408
H         -5.23164        1.68752        0.68501
H         -4.71912        1.91905       -1.00112
