36
Azulene_H18_Int1_Sub1.log	Energy: -820187.4501313
C          0.32942        0.57267       -1.09727
C         -1.03111        0.12764       -1.27844
C          0.24355        1.90056       -0.54020
C         -1.90183        1.16888       -0.73824
C         -1.39514       -1.06502       -1.91654
C         -1.06796        2.24238       -0.30720
C          1.43151        2.76175       -0.24588
C         -3.28792        1.14349       -0.61584
C         -2.67776       -1.56612       -2.11287
H         -0.54204       -1.66584       -2.25616
H         -1.41867        3.16003        0.16211
C         -4.17942        0.15801       -1.03771
H         -3.73323        2.02131       -0.13706
C         -3.90565       -1.03327       -1.70836
H         -2.72974       -2.52296       -2.64004
H         -5.23525        0.35450       -0.83164
H         -4.78207       -1.63927       -1.95836
O          2.15293       -1.43982       -0.04065
C          2.27355       -2.07357       -1.16320
O          1.41484       -2.16674       -2.03025
C          3.63549       -2.71221       -1.32194
H          3.70554       -3.20609       -2.29818
H          4.42047       -1.94862       -1.22422
H          3.79429       -3.44352       -0.51619
H          1.14866        0.22321       -1.72658
Pd         0.48217       -0.64434        0.63844
O          0.24626       -1.55920        2.58804
C         -0.74616       -0.81174        2.76505
O         -1.07760       -0.01895        1.81846
C         -1.51099       -0.80435        4.04641
H         -1.09613       -0.02038        4.69870
H         -2.56668       -0.56952        3.85898
H         -1.40741       -1.77050        4.55543
F          1.06546        4.01306        0.04259
F          2.26004        2.80893       -1.29232
F          2.13157        2.29913        0.79346
