36
Azulene_H18_Int1_Sub30.log	Energy: -633444.5520893
C         -0.27364       -1.05028        1.29394
C          0.80191       -1.31861        0.35980
C          0.31189       -0.34892        2.40077
C          1.99738       -0.67069        0.88631
C          0.62751       -2.07423       -0.79781
C          1.64739       -0.10070        2.14268
H         -0.22880       -0.05493        3.30100
C          3.25762       -0.54146        0.26526
C          1.58640       -2.37881       -1.76246
H         -0.39887       -2.42706       -0.95423
H          2.31419        0.47928        2.77707
C          3.62866       -1.13330       -0.94484
C          4.28374        0.30082        0.96586
C          2.90923       -1.95169       -1.82039
H          1.24770       -3.00897       -2.58948
H          4.65726       -0.92912       -1.25713
H          3.47446       -2.29479       -2.69265
O         -2.83318       -0.09840        0.36104
C         -3.19565       -1.21610       -0.18565
O         -2.45052       -2.03166       -0.71086
C         -4.69199       -1.43465       -0.11968
H         -4.93848       -2.44453       -0.46843
H         -5.05678       -1.28116        0.90564
H         -5.19316       -0.69045       -0.75645
H         -1.14793       -1.69806        1.36428
Pd        -0.99686        0.60901        0.19329
O         -1.22451        2.45974       -0.92526
C          0.00867        2.64093       -0.78058
O          0.67915        1.76109       -0.14249
C          0.69191        3.86235       -1.30357
H          0.74924        4.60868       -0.49618
H          1.71582        3.62039       -1.61702
H          0.11902        4.29141       -2.13475
H          4.48059       -0.07665        1.98136
H          3.91336        1.33284        1.07054
H          5.23413        0.32474        0.41788
