38
Azulene_H16_deriv1_Int1_Sub7.log	Energy: -956471.4372675
C         -0.69104       -1.58805        0.16903
C          0.47024       -1.60988       -0.66726
C         -0.37695       -0.95485        1.40203
C          1.53741       -1.04381        0.04906
N          0.46667       -2.02801       -1.96544
C          1.04357       -0.66165        1.38331
H         -0.96228       -1.04985        2.31772
C          2.81657       -0.77922       -0.48529
C          1.73686       -0.15435        2.44362
C          3.92271       -0.27639        0.15460
H          2.95341       -0.99799       -1.54835
C          3.12842        0.15175        2.51394
H          1.15442        0.04289        3.34871
C          4.07168        0.10478        1.52346
Cl         5.36030       -0.06751       -0.81334
H          3.48579        0.49546        3.48832
H          5.08296        0.41536        1.79785
O         -3.07401       -0.03507        1.07966
C         -3.87152       -0.72437        0.31445
O         -3.57980       -1.17295       -0.78320
C         -5.24003       -0.91798        0.92728
H         -5.15416       -1.23698        1.97521
H         -5.77253        0.04495        0.92187
H         -5.80827       -1.65246        0.34436
H         -1.63254       -2.08147       -0.06962
Pd        -1.36947        0.57328        0.28090
O         -1.81903        2.42181       -0.70615
C         -0.59616        2.52178       -0.99443
O          0.18770        1.59931       -0.59684
C         -0.06209        3.69345       -1.74697
H         -0.82309        4.07765       -2.43785
H          0.18362        4.49054       -1.02829
H          0.85382        3.41607       -2.28355
H          1.35714       -2.29494       -2.36075
C         -0.71102       -2.59325       -2.57194
H         -0.58246       -2.61889       -3.66274
H         -1.58962       -1.96828       -2.34947
H         -0.93310       -3.62190       -2.22687
