33
Azulene_H18_Int1_Sub2.log	Energy: -897113.9810350
C         -0.16665       -0.99678        1.03310
C          1.02783       -1.23217        0.25102
C          0.27833       -0.29547        2.21191
C          2.13168       -0.56113        0.93421
C          1.06208       -2.00073       -0.91294
C          1.62621       -0.00809        2.14068
Cl        -0.74992        0.11852        3.50730
C          3.45178       -0.43901        0.49444
C          2.15998       -2.25872       -1.73425
H          0.08643       -2.40601       -1.20813
H          2.19718        0.57474        2.86082
C          4.04137       -0.98051       -0.64224
H          4.10881        0.14906        1.14278
C          3.47027       -1.79645       -1.62340
H          1.95497       -2.89695       -2.59856
H          5.10182       -0.75016       -0.77903
H          4.15106       -2.11847       -2.41731
O         -2.57531       -0.20644       -0.38310
C         -2.80996       -1.38606       -0.86249
O         -1.96575       -2.22249       -1.15497
C         -4.28854       -1.65630       -1.03633
H         -4.44420       -2.69103       -1.36361
H         -4.82071       -1.46839       -0.09301
H         -4.69998       -0.96158       -1.78329
H         -1.01724       -1.67890        1.02204
Pd        -0.77424        0.58595       -0.23737
O         -0.90993        2.40930       -1.40048
C          0.26126        2.67190       -1.03311
O          0.85807        1.83288       -0.27640
C          0.94651        3.93814       -1.42781
H          0.79263        4.68455       -0.63324
H          2.02611        3.76972       -1.53272
H          0.51726        4.32744       -2.35914
