42
Azulene_H12_Int1_Sub21.log	Energy: -682739.5439742
C          0.40090       -1.61150       -1.39029
C          1.34878       -1.85833       -2.37660
C          0.61540       -1.33426       -0.03203
C          2.74437       -1.88556       -2.28104
H          0.94106       -2.03192       -3.37644
C          1.89342       -1.33698        0.68439
C         -0.43463       -1.09771        0.94662
C          3.55509       -1.70492       -1.16403
H          3.27370       -2.07820       -3.21937
C          3.17215       -1.46989        0.15771
C          1.60465       -1.12082        2.06342
C          0.24749       -0.98858        2.22285
C         -1.81774       -1.71682        0.84918
H          4.63223       -1.77268       -1.34106
H          3.98561       -1.39662        0.88659
H          2.36209       -1.02678        2.84102
H         -0.26574       -0.83291        3.17197
O         -2.17521        1.04922       -0.23829
C         -2.68800        0.59433       -1.33761
O         -2.13161       -0.14592       -2.13586
C         -4.11845        1.04647       -1.53603
H         -4.75286        0.58952       -0.76127
H         -4.19380        2.13620       -1.41717
H         -4.47265        0.74164       -2.52791
H         -0.64014       -1.55060       -1.72308
Pd        -0.25726        0.93579        0.22684
O          0.37026        2.96058       -0.20999
C          1.50080        2.66931        0.25296
O          1.68709        1.48158        0.67989
C          2.59816        3.67778        0.34344
H          3.57558        3.18638        0.25540
H          2.47336        4.44474       -0.43104
H          2.54662        4.16747        1.32819
H         -2.20158       -1.52840       -0.16295
C         -1.69687       -3.23350        1.02581
H         -2.68287       -3.71309        0.92424
H         -1.02643       -3.67847        0.27503
H         -1.30090       -3.48543        2.02291
C         -2.79950       -1.13088        1.85683
H         -2.87171       -0.04074        1.74824
H         -3.80170       -1.55861        1.70073
H         -2.50628       -1.37048        2.89193
