36
Azulene_H11_Int1_Sub6_f.log	Energy: -633440.0856338
C          0.18088       -1.62347        0.22493
C         -0.22935       -1.61825        1.61095
C         -0.56744       -1.33313       -0.94162
C         -1.47234       -1.27053        2.09753
C          0.84919       -2.02551        2.56847
C         -1.92483       -0.96628       -1.05146
H         -0.05048       -1.53837       -1.88471
C         -2.64892       -0.89384        1.40627
H         -1.57058       -1.29850        3.18633
C         -2.87835       -0.75617        0.05743
C         -2.61930       -0.73836       -2.23432
H         -3.51220       -0.68779        2.04831
C         -4.12227       -0.40003       -0.53868
C         -3.96096       -0.39289       -1.91501
H         -2.19563       -0.81035       -3.23628
H         -5.03578       -0.17926        0.01303
H         -4.73767       -0.16090       -2.64464
O          2.18414       -0.25819       -1.27515
C          3.22619       -0.59344       -0.56551
O          3.23703       -0.66195        0.65269
C          4.44560       -0.88023       -1.40839
H          4.18431       -1.50596       -2.27275
H          4.83829        0.07063       -1.79915
H          5.21483       -1.36549       -0.79598
H          1.14478       -2.10703        0.05077
Pd         0.66636        0.42376       -0.20763
O          0.96005        2.53173       -0.11586
C         -0.11663        2.62325        0.53568
O         -0.74944        1.54792        0.78935
C         -0.65899        3.94181        0.96995
H         -1.32776        4.32167        0.18213
H         -1.24400        3.82725        1.89125
H          0.15795        4.66082        1.10828
H          1.06168       -3.10289        2.45941
H          0.56635       -1.83566        3.61183
H          1.78428       -1.49497        2.32746
