33
Azulene_H11_Int1_Sub10_f.log	Energy: -897106.4313243
C          0.16443        0.21766       -1.61566
C         -0.74431       -0.87298       -1.79996
C         -0.05296        1.44893       -0.95495
C         -2.02866       -1.01837       -1.34146
H         -0.33724       -1.71527       -2.36411
C         -1.24048        1.90702       -0.33302
H          0.74628        2.18842       -1.06040
C         -2.83172       -0.10027       -0.60492
Cl        -2.81726       -2.52834       -1.70046
C         -2.51134        1.15630       -0.16723
C         -1.42939        3.14915        0.24622
H         -3.83970       -0.45457       -0.37263
C         -3.40744        2.02280        0.53328
C         -2.75523        3.21462        0.77445
H         -0.68095        3.94010        0.29507
H         -4.42930        1.76555        0.80959
H         -3.17977        4.07862        1.28710
O          2.65790        0.83459       -0.16720
C          3.42024        0.15433       -0.98219
O          3.08199       -0.86351       -1.55961
C          4.79421        0.76385       -1.13359
H          4.72291        1.84788       -1.29767
H          5.35645        0.61122       -0.20013
H          5.32448        0.28040       -1.96253
H          1.08469        0.12521       -2.19668
Pd         0.96743       -0.01938        0.38749
O          1.40515       -0.90436        2.27565
C          0.19787       -1.26132        2.35499
O         -0.57419       -0.95466        1.38835
C         -0.33072       -1.98790        3.54313
H         -0.76506       -1.25341        4.23888
H         -1.12550       -2.68108        3.23893
H          0.48047       -2.51922        4.05563
