38
Azulene_H18_Int1_Sub23.log	Energy: -668153.0165694
C         -0.21528        0.58862       -1.47648
C          0.44306        1.35093       -0.44681
C          0.79501       -0.18836       -2.14471
C          1.85490        0.96382       -0.46390
C         -0.16919        2.34903        0.32477
C          2.01840       -0.01112       -1.51429
H          0.60232       -0.84560       -2.99101
C          2.86924        1.41613        0.36260
C          0.40601        3.13113        1.32052
H         -1.23712        2.47963        0.10920
N          3.20360       -0.63565       -1.80013
C          2.81073        2.36643        1.38755
H          3.86304        0.99679        0.17368
C          1.71961        3.12299        1.80422
H         -0.26875        3.84548        1.80073
H          3.75135        2.55621        1.91183
H          1.92155        3.82506        2.61933
O         -2.73934       -0.48398       -0.40658
C         -3.41492        0.59837       -0.61496
O         -2.97032        1.73859       -0.63177
C         -4.88504        0.32188       -0.85271
H         -5.40859        1.25599       -1.08833
H         -5.00545       -0.40083       -1.67238
H         -5.32073       -0.13584        0.04756
H         -1.14804        0.92426       -1.93101
Pd        -0.84280       -0.66369        0.12076
O         -0.94654       -2.15235        1.72852
C          0.30579       -2.13093        1.76199
O          0.92471       -1.35085        0.96220
C          1.08364       -3.01366        2.68487
H          1.37059       -3.92803        2.14281
H          2.00212       -2.50860        3.01145
H          0.46752       -3.29920        3.54632
H          3.80539       -0.77300       -0.99802
C          3.22466       -1.70653       -2.75925
H          4.24573       -2.10134       -2.84627
H          2.92958       -1.33404       -3.75300
H          2.54547       -2.54128       -2.49642
