45
Azulene_H18_Int1_Sub28.log	Energy: -707385.8461959
C          0.78865       -1.05870       -1.22379
C         -0.20176       -1.39655       -0.21959
C          0.08462       -0.39714       -2.27988
C         -1.48010       -0.81471       -0.64107
C          0.14670       -2.16538        0.88736
C         -1.23794       -0.22822       -1.92211
H          0.53309       -0.07261       -3.21929
C         -2.68816       -0.77910        0.10868
C         -0.68433       -2.58596        1.92121
H          1.20973       -2.43280        0.92856
H         -1.95970        0.31255       -2.52369
C         -2.86508       -1.45699        1.32036
C         -3.89285        0.03016       -0.42242
C         -2.02114       -2.25978        2.09535
H         -0.22740       -3.21712        2.68816
H         -3.85648       -1.35798        1.75834
H         -2.49322       -2.67441        2.99178
O          3.37140        0.03460       -0.53978
C          3.84904       -1.06327       -0.04446
O          3.20688       -1.92700        0.53740
C          5.34305       -1.19095       -0.25184
H          5.67908       -2.18967        0.05138
H          5.60231       -0.99899       -1.30243
H          5.85667       -0.42877        0.35300
H          1.68381       -1.66624       -1.36168
Pd         1.52139        0.63481       -0.19334
O          1.73346        2.50971        0.90515
C          0.48350        2.60241        0.88135
O         -0.18266        1.67873        0.30186
C         -0.24131        3.74381        1.51799
H         -0.95771        4.17241        0.80303
H         -0.81617        3.36923        2.37820
H          0.46782        4.50884        1.85510
C         -5.09627        0.02124        0.52964
H         -5.89228        0.64131        0.09182
H         -5.51543       -0.98587        0.67534
H         -4.85402        0.44938        1.51399
C         -3.49518        1.50994       -0.58014
H         -2.62051        1.66982       -1.21798
H         -4.34369        2.07524       -0.99586
H         -3.24415        1.93739        0.40190
C         -4.39692       -0.58460       -1.74180
H         -5.24330        0.00662       -2.12439
H         -3.63731       -0.63416       -2.52909
H         -4.75495       -1.61105       -1.56855
