37
Azulene_H16_deriv1_Int1_Sub24.log	Energy: -968925.0357967
C          0.82480       -1.11619        1.46970
C         -0.45036       -0.63493        1.82992
C          0.76511       -1.66114        0.15017
C         -1.33966       -0.88072        0.77963
H         -0.70236       -0.11584        2.75126
C         -0.61637       -1.58635       -0.28115
H          1.48583       -2.36186       -0.27410
C         -2.67708       -0.40553        0.75770
C         -1.09370       -2.12107       -1.45478
C         -3.63182       -0.67899       -0.22251
O         -3.04224        0.35108        1.80785
C         -2.41529       -2.08887       -1.93846
H         -0.35712       -2.63203       -2.08222
C         -3.51366       -1.45724       -1.39508
Cl        -5.20251        0.01864        0.03004
H         -2.59461       -2.61374       -2.88018
H         -4.44494       -1.54144       -1.96059
O          3.33066       -0.69124       -0.52026
C          4.11655       -0.78356        0.51697
O          3.81511       -0.48129        1.65820
C          5.48873       -1.30540        0.15225
H          5.40942       -2.18569       -0.50048
H          6.02799       -0.52892       -0.41097
H          6.04701       -1.54855        1.06409
H          1.71868       -1.12102        2.09669
Pd         1.60594        0.24034       -0.30939
O          1.97423        2.25789       -0.96794
C          0.75474        2.50295       -0.79016
O          0.00384        1.55312       -0.38442
C          0.18961        3.86780       -1.00425
H          0.26196        4.43017       -0.06028
H          0.77001        4.40255       -1.76635
H         -0.86819        3.80417       -1.28985
C         -2.82132        1.74960        1.66012
H         -1.79820        1.94473        1.30207
H         -3.54911        2.18077        0.95342
H         -2.97157        2.19548        2.65094
