36
Azulene_H16_deriv1_Int1_Sub22.log	Energy: -921761.6240751
C          0.71521       -1.31149        1.28599
C         -0.52229       -0.84953        1.77851
C          0.58467       -1.59592       -0.10363
C         -1.47207       -0.84642        0.74816
H         -0.67699       -0.51185        2.79943
C         -0.80238       -1.37312       -0.45545
H          1.25228       -2.23418       -0.68444
C         -2.80786       -0.35678        0.86316
C         -1.30730       -1.65581       -1.70093
C         -3.76702       -0.44467       -0.14491
C         -3.21635        0.27374        2.16095
C         -2.62893       -1.48723       -2.15139
H         -0.59221       -2.06097       -2.42336
C         -3.69443       -0.95805       -1.46222
Cl        -5.36315        0.16415        0.23333
H         -2.83607       -1.80142       -3.17750
H         -4.63922       -0.90530       -2.00826
O          3.20335       -0.64899       -0.62635
C          3.99661       -0.96801        0.35792
O          3.72605       -0.87280        1.54253
C          5.33799       -1.47298       -0.12687
H          5.20754       -2.21811       -0.92385
H          5.90253       -0.63173       -0.55639
H          5.89969       -1.89910        0.71288
H          1.62368       -1.47425        1.86969
Pd         1.52524        0.31117       -0.22667
O          1.97564        2.38929       -0.54051
C          0.76401        2.64598       -0.31715
O         -0.01610        1.67213       -0.05397
C          0.23391        4.03922       -0.38685
H          1.00475        4.75216       -0.06778
H         -0.02834        4.26452       -1.43214
H         -0.66969        4.13621        0.22778
H         -3.68657        1.24989        1.97435
H         -2.36900        0.42226        2.83427
H         -3.97397       -0.34328        2.67013
