33
Azulene_H11_Int1_Sub2_f.log	Energy: -897106.6603276
C         -0.15316       -1.49191        0.30213
C          0.48180       -1.94502       -0.90809
C          0.45517       -0.80640        1.38019
C          1.77167       -1.76557       -1.34801
Cl        -0.57483       -2.82061       -1.96061
C          1.79369       -0.37480        1.52274
H         -0.17247       -0.70294        2.27014
C          2.84246       -1.10514       -0.70006
H          1.99389       -2.18975       -2.32911
C          2.88495       -0.49489        0.52967
C          2.32625        0.26320        2.63396
H          3.77945       -1.09281       -1.26629
C          4.03729        0.10519        1.11660
C          3.69703        0.55555        2.38011
H          1.77597        0.50640        3.54302
H          5.01368        0.17576        0.63806
H          4.36869        1.05563        3.07878
O         -2.09700        0.51078        1.35522
C         -3.14020       -0.23374        1.09693
O         -3.21389       -1.03610        0.18464
C         -4.27559        0.01383        2.06311
H         -3.90984        0.02138        3.09915
H         -4.70538        1.00653        1.86174
H         -5.04775       -0.75313        1.93054
H         -1.15586       -1.89698        0.46349
Pd        -0.65325        0.59433        0.01286
O         -0.96993        2.45800       -0.96511
C          0.07583        2.24757       -1.63861
O          0.70626        1.15994       -1.42817
C          0.58671        3.24093       -2.62413
H          1.28633        3.91726       -2.10898
H          1.13018        2.73172       -3.42999
H         -0.24212        3.83827       -3.02378
