33
Azulene_H16_Int1_Sub26_f.log	Energy: -897111.8280877
C          0.80415       -1.35802        1.36401
C         -0.26454       -0.86034        2.14352
C          0.35195       -1.55523        0.02329
C         -1.40051       -0.75118        1.34152
H         -0.20127       -0.56510        3.18983
C         -1.05438       -1.21913       -0.00671
H          0.84031       -2.18460       -0.72221
C         -2.65092       -0.24086        1.75301
C         -1.86526       -1.33315       -1.11217
C         -3.82121       -0.11614        1.04284
H         -2.69404        0.09682        2.79318
C         -3.22856       -1.00867       -1.25453
H         -1.38265       -1.72217       -2.01430
C         -4.07758       -0.46939       -0.30666
H         -4.67587        0.30583        1.57564
H         -3.67042       -1.19189       -2.23607
Cl        -5.70660       -0.17158       -0.82929
O          2.87691       -0.74359       -0.97386
C          3.83922       -1.14883       -0.19234
O          3.83160       -1.08885        1.02484
C          5.01181       -1.70714       -0.96805
H          4.66779       -2.40581       -1.74319
H          5.52756       -0.88058       -1.47963
H          5.70829       -2.20305       -0.28159
H          1.80518       -1.60847        1.72230
Pd         1.39304        0.29867       -0.19468
O          1.92238        2.35207       -0.51877
C          0.80467        2.67649       -0.03857
O          0.02572        1.74280        0.34564
C          0.37696        4.10273        0.05345
H          1.24831        4.74679        0.22715
H         -0.07963        4.39604       -0.90449
H         -0.36915        4.22792        0.84798
