36
Azulene_H11_Int1_Sub14_f.log	Energy: -633438.2890115
C          0.14067       -1.23388        1.14850
C         -0.58911       -0.50448        2.14455
C         -0.29361       -1.67737       -0.12169
C         -1.86779        0.00081        2.13625
H          0.00032       -0.29978        3.04324
C         -1.57701       -1.52616       -0.70020
H          0.40032       -2.33227       -0.65719
C         -2.82621       -0.15897        1.08645
C         -2.33380        0.80656        3.31793
C         -2.73246       -0.80097       -0.11990
C         -1.98746       -2.03060       -1.92256
H         -3.80048        0.30302        1.28427
C         -3.79814       -0.91342       -1.06795
C         -3.34690       -1.65265       -2.14253
H         -1.36644       -2.61380       -2.60269
H         -4.79144       -0.48483       -0.93783
H         -3.93147       -1.91312       -3.02575
O          2.42790       -0.84445       -0.63344
C          3.32955       -0.88060        0.31137
O          3.17164       -0.44190        1.43674
C          4.61816       -1.52667       -0.14217
H          4.41522       -2.46488       -0.67678
H          5.12649       -0.85233       -0.84760
H          5.26708       -1.70657        0.72309
H          1.10009       -1.62123        1.49786
Pd         0.82974        0.25478       -0.26564
O          1.25646        2.14683       -1.15381
C          0.10397        2.53253       -0.81637
O         -0.63800        1.71053       -0.18734
C         -0.39846        3.89168       -1.16675
H         -0.88792        3.84075       -2.15167
H         -1.13991        4.22564       -0.43006
H          0.43755        4.59908       -1.23294
H         -3.26524        0.39657        3.73974
H         -2.54559        1.84426        3.01248
H         -1.57920        0.83661        4.11460
