49
Azulene_H12_Int1_Sub27.log	Energy: -755943.1436468
C         -0.48680       -1.96000       -0.76995
C          0.61579       -2.13164       -1.60525
C         -0.50688       -1.33380        0.47467
C          1.93108       -1.69703       -1.44700
H          0.41218       -2.66193       -2.54019
C          0.61608       -0.77094        1.21817
C         -1.68780       -1.15064        1.28967
C          2.55078       -1.00019       -0.39863
H          2.59310       -1.93584       -2.28606
C          1.93280       -0.61339        0.79504
C          0.11505       -0.33635        2.48101
C         -1.23924       -0.58272        2.53712
H         -2.56574       -1.78889        1.18491
C          4.01197       -0.63510       -0.57362
H          2.57838       -0.10836        1.52103
H          0.71762        0.15325        3.24549
H         -1.89252       -0.37209        3.38457
O         -4.06909       -0.10679        0.02762
C         -4.34718       -1.18123       -0.64060
O         -3.53462       -1.97718       -1.09054
C         -5.83648       -1.37540       -0.83072
H         -6.36101       -1.27962        0.13032
H         -6.22174       -0.58340       -1.49012
H         -6.03188       -2.35663       -1.27939
H         -1.46565       -2.30845       -1.11937
Pd        -2.23242        0.59399        0.22110
O         -2.28941        2.54126       -0.75403
C         -1.09788        2.69803       -0.39350
O         -0.53568        1.76137        0.26717
C         -0.34359        3.95364       -0.68926
H          0.72509        3.73497       -0.81283
H         -0.75119        4.43927       -1.58452
H         -0.45624        4.64267        0.16204
H          4.33178       -1.03680       -1.55121
C          4.92031       -1.27001        0.48703
H          4.78422       -2.36350        0.48525
H          4.61387       -0.92101        1.48934
C          6.38360       -0.90744        0.25814
H          7.00917       -1.35234        1.04844
H          6.72326       -1.35504       -0.69340
C          6.58451        0.60287        0.20297
H          7.64091        0.84273        0.00231
H          6.35070        1.03601        1.19257
C          5.68483        1.24290       -0.84838
H          5.99379        0.89681       -1.85134
H          5.80858        2.33771       -0.84871
C          4.21987        0.88495       -0.62526
H          3.87412        1.33096        0.32460
H          3.58597        1.31773       -1.41594
