49
Azulene_H18_Int1_Sub3.log	Energy: -755946.7541041
C         -0.17205       -0.63916       -0.87462
C          1.21967       -0.98659       -1.06089
C         -0.73095       -1.59912        0.05677
C          1.50416       -2.08829       -0.14492
C          2.07028       -0.36799       -1.97533
C          0.28640       -2.42653        0.50240
C         -2.17347       -1.68268        0.43562
C          2.73910       -2.69720        0.08898
C          3.42295       -0.63344       -2.19818
H          1.60135        0.44127       -2.54788
H          0.18474       -3.20566        1.25837
C          3.95867       -2.45142       -0.53161
H          2.73765       -3.48199        0.85217
C          4.25774       -1.54296       -1.55238
H          3.89582       -0.02637       -2.97559
H          4.79737       -3.06140       -0.18366
H          5.29816       -1.54851       -1.89170
O         -0.92366        2.12818       -0.64109
C         -0.74274        2.41730       -1.89170
O          0.10816        1.93045       -2.62268
C         -1.72547        3.45260       -2.39526
H         -1.58058        3.61676       -3.46957
H         -2.75547        3.12385       -2.19505
H         -1.57584        4.39535       -1.84887
H         -0.74503       -0.16103       -1.67012
Pd         0.32178        0.98304        0.38840
O          1.10259        2.27580        1.95734
C          1.70463        1.27204        2.40952
O          1.57344        0.15957        1.79570
C          2.53654        1.33993        3.64857
H          1.95926        0.92095        4.48700
H          3.44212        0.73052        3.52777
H          2.79451        2.38058        3.87875
H         -2.27530       -2.50132        1.17096
C         -3.04371       -2.03970       -0.78082
H         -2.68592       -2.97881       -1.23277
H         -2.92012       -1.25456       -1.54747
C         -4.51609       -2.14943       -0.40250
H         -5.11668       -2.37993       -1.29729
H         -4.65023       -3.00145        0.28858
C         -5.01900       -0.87521        0.26649
H         -6.07385       -0.98869        0.56450
H         -4.98853       -0.04682       -0.46418
C         -4.15956       -0.50777        1.47097
H         -4.27862       -1.28024        2.25274
H         -4.50427        0.43931        1.91586
C         -2.68835       -0.39278        1.09216
H         -2.54688        0.44794        0.39105
H         -2.07248       -0.16101        1.97621
