33
Azulene_H8_Int1_Sub2.log	Energy: -897104.9827124
C          0.16134       -1.50689        0.38001
C         -0.90912       -1.41300        1.30511
C          0.15482       -1.28406       -1.01781
C         -2.22964       -1.09146        1.06783
Cl        -0.46875       -1.73654        2.95976
C         -0.93614       -0.89806       -1.86050
H          1.04696       -1.65934       -1.52565
C         -2.84562       -0.75468       -0.14818
H         -2.88408       -1.09693        1.94395
C         -2.23231       -0.64550       -1.50131
H         -0.69186       -0.79518       -2.92258
C         -4.19060       -0.44409       -0.29775
C         -3.27753       -0.25985       -2.39345
H         -4.92441       -0.43167        0.50815
C         -4.44660       -0.14174       -1.66553
H         -3.15206       -0.09718       -3.46332
H         -5.41989        0.13820       -2.07071
O          2.71873        0.21808       -0.85457
C          3.43004       -0.84842       -0.62626
O          3.03222       -1.87253       -0.09809
C          4.85882       -0.68659       -1.09463
H          4.88518       -0.30360       -2.12414
H          5.36340        0.05581       -0.45857
H          5.38153       -1.64780       -1.02591
H          1.10571       -1.92343        0.74787
Pd         0.90473        0.57314       -0.19046
O          1.11090        2.60619        0.41936
C         -0.11844        2.61341        0.70064
O         -0.77524        1.54039        0.49430
C         -0.78676        3.80867        1.28528
H         -1.84512        3.83102        0.99602
H         -0.72978        3.73936        2.38269
H         -0.27094        4.72382        0.96912
