42
Azulene_H16_deriv1_Int1_Sub21.log	Energy: -971055.5004677
C          0.81998       -1.12210        1.33487
C         -0.44515       -0.57511        1.63403
C          0.79526       -1.65202        0.01372
C         -1.31501       -0.75786        0.55211
H         -0.67592       -0.06606        2.56258
C         -0.56443       -1.51227       -0.47051
H          1.49151       -2.39414       -0.38022
C         -2.64344       -0.22756        0.46198
C         -0.98302       -2.06885       -1.65171
C         -3.55523       -0.63048       -0.51406
C         -3.09910        0.78778        1.50237
C         -2.28733       -2.06649       -2.17896
H         -0.21821       -2.59391       -2.23176
C         -3.40082       -1.45310       -1.66105
Cl        -5.21705       -0.07597       -0.38155
H         -2.43742       -2.61527       -3.11216
H         -4.32256       -1.58389       -2.23221
O          3.47681       -0.82490       -0.34436
C          4.16022       -0.88130        0.76477
O          3.76962       -0.49821        1.85392
C          5.53588       -1.47722        0.56176
H          5.47563       -2.39924       -0.03292
H          6.15460       -0.76425       -0.00365
H          6.00191       -1.67420        1.53452
H          1.66968       -1.18075        2.01805
Pd         1.78428        0.18995       -0.36502
O          2.31237        2.16810       -1.03025
C          1.08925        2.45909       -1.01706
O          0.25897        1.54755       -0.68694
C          0.60363        3.83337       -1.33682
H          1.34070        4.36465       -1.95114
H         -0.36882        3.78467       -1.84394
H          0.46935        4.38584       -0.39383
H         -4.00069        1.24311        1.07606
C         -3.54735        0.10350        2.79695
H         -3.93327        0.85546        3.50205
H         -4.35224       -0.61989        2.59949
H         -2.72405       -0.43281        3.29068
C         -2.13255        1.95630        1.73312
H         -1.59712        2.22255        0.81107
H         -2.71177        2.82915        2.07062
H         -1.37516        1.75801        2.50230
