45
Azulene_H18_Int1_Sub20.log	Energy: -707391.5184987
C         -0.35646        0.56888       -1.37460
C          0.22394        1.47583       -0.41356
C          0.71049       -0.28115       -1.82215
C          1.61972        1.07463       -0.23681
C         -0.48555        2.52468        0.17080
C          1.88400       -0.02432       -1.12855
H          0.58694       -1.03626       -2.59687
C          2.51534        1.64740        0.67110
C         -0.03739        3.45313        1.11051
H         -1.53505        2.57701       -0.14396
C          3.16980       -0.82427       -1.26113
C          2.33534        2.72647        1.53188
H          3.50855        1.19831        0.70703
C          1.21151        3.53496        1.72029
H         -0.77270        4.20044        1.42196
H          3.20578        2.98487        2.14184
H          1.33046        4.34032        2.45170
O         -2.92463       -0.64704       -0.84593
C         -3.61869        0.43348       -1.01683
O         -3.24799        1.57192       -0.76592
C         -4.99684        0.15382       -1.57709
H         -5.49662        1.09648       -1.82980
H         -4.92609       -0.49421       -2.46194
H         -5.58845       -0.38895       -0.82486
H         -1.21917        0.84738       -1.98065
Pd        -1.19839       -0.67607        0.11380
O         -1.54254       -1.99730        1.81556
C         -0.33186       -1.85113        2.10778
O          0.38337       -1.09413        1.36745
C          0.29244       -2.56162        3.26427
H          0.70917       -3.51658        2.90808
H          1.11353       -1.96416        3.68082
H         -0.46325       -2.77867        4.02931
C          2.99611       -1.92004       -2.31726
H          3.93007       -2.49350       -2.41624
H          2.19842       -2.62535       -2.03934
H          2.75713       -1.49867       -3.30570
C          4.32927        0.07757       -1.71264
H          4.54547        0.88660       -1.00108
H          5.24929       -0.51720       -1.82658
H          4.10301        0.54425       -2.68344
C          3.50284       -1.51513        0.07206
H          4.38325       -2.16583       -0.05025
H          3.72527       -0.80160        0.87730
H          2.65152       -2.12239        0.41030
