49
Azulene_H11_Int1_Sub19_f.log	Energy: -755937.2473545
C         -1.19481       -1.07783       -1.34048
C         -0.07670       -0.45932       -1.98613
C         -1.17180       -1.80032       -0.12702
C          1.21761       -0.32279       -1.56470
H         -0.31734       -0.00098       -2.94969
C         -0.06744       -2.06673        0.71323
H         -2.09775       -2.32339        0.13084
C          1.88513       -0.77259       -0.38082
H          1.85241        0.24580       -2.24866
C          1.33036       -1.56729        0.61086
C         -0.14538       -2.84828        1.85935
C          3.31560       -0.30334       -0.24526
C          2.01159       -2.09898        1.74983
C          1.12739       -2.87037        2.48417
H         -1.04802       -3.34568        2.21456
H          3.05974       -1.94678        1.99647
H          1.37037       -3.41038        3.39994
O         -3.68453       -0.34205       -0.02408
C         -4.31444       -0.00258       -1.11729
O         -3.79505        0.54032       -2.07584
C         -5.78418       -0.35137       -1.07024
H         -5.92708       -1.38193       -0.71686
H         -6.28667        0.31276       -0.35115
H         -6.22850       -0.21796       -2.06367
H         -2.09798       -1.14943       -1.94952
Pd        -1.84045        0.33564        0.16238
O         -2.02788        2.10426        1.34690
C         -0.77297        2.21848        1.32440
O         -0.10704        1.34177        0.68336
C         -0.06873        3.32240        2.03784
H          0.41659        2.91045        2.93570
H          0.71811        3.73890        1.39422
H         -0.77975        4.10198        2.33569
H          3.72478       -0.71390        0.68787
C          3.38831        1.22642       -0.11197
H          2.73907        1.54818        0.71676
H          2.97678        1.69801       -1.02133
C          4.82576        1.68950        0.09217
H          4.86080        2.78914        0.15480
H          5.19504        1.31288        1.06338
C          5.73959        1.18923       -1.02138
H          6.77908        1.50478       -0.83733
H          5.43736        1.65854       -1.97531
C          5.66271       -0.32694       -1.16469
H          6.06995       -0.79993       -0.25272
H          6.29692       -0.66871       -1.99835
C          4.22818       -0.79938       -1.37538
H          3.86372       -0.42443       -2.34761
H          4.18445       -1.89907       -1.42889
