42
Azulene_H12_Int1_Sub29.log	Energy: -682743.0015576
C          0.30257       -1.93164       -0.72089
C          1.40091       -2.07696       -1.56633
C          0.26677       -1.26218        0.50097
C          2.69491       -1.57162       -1.44312
H          1.21215       -2.65015       -2.47878
C          1.36935       -0.61608        1.20689
C         -0.91037       -1.11137        1.32742
C          3.29156       -0.80841       -0.42899
H          3.35681       -1.80755       -2.28323
C          2.67072       -0.40914        0.75879
C          0.86359       -0.16223        2.46104
C         -0.47511       -0.47592        2.54671
H         -1.75538       -1.79719        1.25894
C          4.73710       -0.37893       -0.63516
H          3.29992        0.15289        1.45705
H          1.45022        0.38486        3.19846
H         -1.12687       -0.26875        3.39618
O         -3.35826       -0.23853        0.06218
C         -3.58955       -1.35124       -0.55971
O         -2.74318       -2.12240       -0.99004
C         -5.06925       -1.62754       -0.72059
H         -5.58607       -1.51983        0.24335
H         -5.50238       -0.88299       -1.40510
H         -5.22002       -2.63454       -1.12743
H         -0.66158       -2.34258       -1.04226
Pd        -1.55844        0.56253        0.20390
O         -1.73208        2.46821       -0.83534
C         -0.54641        2.70113       -0.49722
O          0.07410        1.81831        0.18525
C          0.13410        3.98541       -0.84389
H          1.21192        3.82215       -0.97328
H         -0.30924        4.41729       -1.74965
H         -0.00786        4.69562       -0.01467
H          5.05700       -0.80124       -1.60194
C          4.85260        1.14206       -0.73935
H          5.88937        1.43668       -0.96356
H          4.20278        1.53864       -1.53362
H          4.56394        1.63334        0.20350
C          5.66570       -0.94450        0.43855
H          5.59368       -2.04087        0.49447
H          6.71174       -0.68092        0.21937
H          5.42820       -0.54090        1.43563
