33
Azulene_H16_deriv1_Int1_Sub18.log	Energy: -1185427.9589410
C          0.81879       -1.32306        1.18713
C         -0.44508       -0.87698        1.64358
C          0.73378       -1.61847       -0.20269
C         -1.34957       -0.89535        0.58412
H         -0.66162       -0.52407        2.64825
C         -0.64312       -1.40626       -0.60324
H          1.43098       -2.24238       -0.76376
C         -2.69473       -0.43162        0.64259
C         -1.11342       -1.66953       -1.86410
C         -3.64513       -0.45944       -0.37317
Cl        -3.17657        0.21916        2.16306
C         -2.42260       -1.47938       -2.35161
H         -0.38157       -2.06737       -2.57340
C         -3.50849       -0.94985       -1.69778
Cl        -5.22602        0.16736       -0.03621
H         -2.59712       -1.77463       -3.38928
H         -4.42952       -0.87724       -2.28062
O          3.36816       -0.62934       -0.55743
C          4.12105       -0.91378        0.46923
O          3.78971       -0.80708        1.63705
C          5.49571       -1.39205        0.05781
H          5.42331       -2.14506       -0.73905
H          6.06276       -0.54080       -0.34810
H          6.02256       -1.79934        0.92886
H          1.70608       -1.47800        1.80518
Pd         1.65554        0.30403       -0.25699
O          2.08317        2.38477       -0.56115
C          0.85551        2.62008       -0.40966
O          0.08166        1.63035       -0.18925
C          0.30275        4.00134       -0.51275
H          1.04221        4.73048       -0.15815
H          0.08910        4.21744       -1.57098
H         -0.63250        4.08135        0.05524
