37
Azulene_H8_Int1_Sub24.log	Energy: -680603.3343285
C          0.49443       -1.37421        1.32675
C         -0.61911       -0.96188        2.06382
C          0.63153       -1.63020       -0.06947
C         -1.91152       -0.71575        1.59927
H         -0.45033       -0.81590        3.13318
C         -0.38353       -1.56780       -1.07777
H          1.53643       -2.17659       -0.34499
C         -2.40401       -0.81127        0.30487
H         -2.64984       -0.40728        2.34673
C         -1.69571       -1.19215       -0.94005
H         -0.06020       -1.84761       -2.08592
C         -3.73288       -0.54331       -0.07293
C         -2.64705       -1.12628       -1.99270
O         -4.65989       -0.16722        0.80855
C         -3.87479       -0.73639       -1.47401
H         -2.43360       -1.35061       -3.03747
H         -4.79048       -0.60205       -2.04817
O          3.11737       -0.29167       -0.70777
C          3.86608       -0.96600        0.11578
O          3.51511       -1.40329        1.19901
C          5.27203       -1.15524       -0.41045
H          5.25321       -1.48311       -1.45893
H          5.79698       -0.18858       -0.38109
H          5.80754       -1.88102        0.21307
H          1.42171       -1.56042        1.87841
Pd         1.34408        0.38311       -0.16978
O          1.59055        2.50971       -0.30400
C          0.37081        2.63512       -0.01440
O         -0.30964        1.57699        0.18003
C         -0.26296        3.97769        0.13508
H         -1.33782        3.91773       -0.07730
H         -0.13234        4.31398        1.17531
H          0.22928        4.70381       -0.52406
C         -5.95694        0.08352        0.33155
H         -5.96293        0.90315       -0.40728
H         -6.39886       -0.81751       -0.12740
H         -6.56271        0.37768        1.19726
