37
Azulene_H12_Int1_Sub16.log	Energy: -680612.9176593
C          1.28833       -1.39807        0.24815
C          2.54515       -1.42356       -0.34952
C          0.76170       -0.47370        1.15016
C          3.59695       -0.50608       -0.22588
H          2.71208       -2.26673       -1.02064
C          1.39407        0.69955        1.71179
C         -0.58417       -0.52998        1.68707
C          3.63062        0.66827        0.56335
O          4.74372       -0.67548       -0.89916
C          2.67240        1.19124        1.40357
C          0.47266        1.30088        2.61146
C         -0.69369        0.55781        2.62163
H         -1.13732       -1.46648        1.76829
H          4.57231        1.21576        0.47432
H          2.95191        2.11864        1.91333
H          0.65925        2.22082        3.16492
H         -1.57319        0.75616        3.23488
O         -2.82326       -1.07018       -0.04433
C         -2.51782       -2.30117       -0.30556
O         -1.38512       -2.75462       -0.40172
C         -3.73929       -3.17464       -0.49750
H         -4.44467       -3.03521        0.33367
H         -4.25909       -2.86903       -1.41783
H         -3.43968       -4.22655       -0.57544
H          0.58221       -2.18615       -0.04178
Pd        -1.46133        0.36314       -0.02169
O         -1.97839        1.65031       -1.69915
C         -1.03649        2.39994       -1.34389
O         -0.34465        2.06276       -0.32541
C         -0.73493        3.67730       -2.05810
H          0.33863        3.89956       -2.00470
H         -1.07261        3.61801       -3.10019
H         -1.27933        4.49583       -1.56229
C          4.92971       -1.77304       -1.75699
H          4.86605       -2.73038       -1.21338
H          4.19700       -1.77420       -2.58109
H          5.93798       -1.66527       -2.17449
