33
Azulene_H8_deriv1_Int1_Sub18.log	Energy: -1185425.7075939
C         -0.22315        0.26124        1.69662
C          0.95097       -0.44062        2.02416
C         -0.46599        1.25290        0.71656
C          2.19793       -0.33039        1.43519
H          0.86554       -1.16040        2.83949
C          0.48032        1.83042       -0.19468
H         -1.39638        1.81016        0.84509
C          2.61906        0.51496        0.38546
Cl         3.40784       -1.37972        2.10218
C          1.80665        1.51052       -0.37111
Cl        -0.20436        3.06941       -1.19135
C          3.90340        0.57610       -0.14109
C          2.68314        2.10861       -1.32302
H          4.74055       -0.03137        0.19657
C          3.93612        1.54426       -1.17860
H          2.38751        2.88000       -2.03058
H          4.81737        1.79904       -1.76788
O         -3.02810        0.04939       -0.14880
C         -3.64864        0.36841        0.94954
O         -3.13458        0.49297        2.04875
C         -5.12901        0.57736        0.72437
H         -5.29195        1.28571       -0.09992
H         -5.58915       -0.37671        0.42795
H         -5.59532        0.94562        1.64561
H         -1.09413        0.10351        2.34292
Pd        -1.15535       -0.52658       -0.28369
O         -1.34119       -2.21732       -1.57102
C         -0.08416       -2.31446       -1.57203
O          0.57209       -1.45933       -0.89056
C          0.62349       -3.39963       -2.30594
H          1.61978       -3.05997       -2.61630
H          0.74730       -4.25827       -1.62788
H          0.02911       -3.72329       -3.16934
