36
Azulene_H18_Int1_Sub14.log	Energy: -633444.6840609
C         -0.00203       -1.22269        0.91787
C          1.32904       -1.12605        0.35875
C          0.01147       -0.52760        2.16961
C          2.10335       -0.29692        1.28744
C          1.71554       -1.71971       -0.84122
C          1.27551        0.03318        2.37679
H         -0.82566       -0.50425        2.86811
C          3.42957        0.15265        1.14893
C          3.00149       -1.60209       -1.42593
C          0.71270       -2.55913       -1.57699
H          1.57053        0.66635        3.21236
C          4.32499       -0.11918        0.13768
H          3.78926        0.79435        1.95955
C          4.12220       -0.91111       -1.00888
H          3.11801       -2.14094       -2.37081
H          5.31621        0.33258        0.23320
H          4.98696       -0.98933       -1.67530
O         -2.69476       -0.34290        0.57658
C         -3.08376       -1.26779       -0.24782
O         -2.39936       -1.75061       -1.13808
C         -4.51110       -1.70527       -0.00725
H         -4.73552       -2.59447       -0.60820
H         -4.67838       -1.90734        1.05989
H         -5.18928       -0.88753       -0.29375
H         -0.71263       -2.00053        0.64018
Pd        -0.96520        0.54119        0.20703
O         -1.45643        2.41112       -0.74322
C         -0.22739        2.67955       -0.75362
O          0.57970        1.82031       -0.26819
C          0.28718        3.97650       -1.28479
H          0.34845        4.69789       -0.45529
H          1.29452        3.84493       -1.70008
H         -0.40059        4.37573       -2.04051
H          1.02555       -2.73451       -2.61449
H         -0.29448       -2.11277       -1.57063
H          0.62067       -3.54405       -1.08789
