45
Azulene_H12_Int1_Sub12.log	Energy: -707391.2661835
C          0.85837       -1.36291        0.37670
C          2.16369       -1.32576       -0.12154
C          0.22895       -0.47872        1.24652
C          3.18971       -0.39506        0.06895
H          2.39447       -2.15882       -0.78515
C          0.78736        0.70141        1.88270
C         -1.14812       -0.58545        1.68433
C          3.09776        0.75311        0.88395
C          4.53583       -0.59342       -0.65377
C          2.06338        1.23127        1.67286
C         -0.21197        1.24916        2.73234
C         -1.35141        0.47249        2.63931
H         -1.67744       -1.53872        1.70239
H          3.99511        1.37583        0.91092
H          2.27880        2.15438        2.22087
H         -0.09318        2.15783        3.32166
H         -2.27746        0.62892        3.19369
O         -3.23893       -1.12263       -0.22470
C         -2.88761       -2.34391       -0.47700
O         -1.74241       -2.77411       -0.47980
C         -4.07090       -3.23550       -0.78775
H         -4.84527       -3.12739       -0.01535
H         -4.51905       -2.91988       -1.74171
H         -3.74421       -4.27963       -0.86112
H          0.20955       -2.17172        0.01952
Pd        -1.91434        0.33498       -0.06034
O         -2.33703        1.65847       -1.73558
C         -1.44147        2.41787       -1.29252
O         -0.81879        2.06819       -0.23428
C         -1.11737        3.71982       -1.95019
H         -0.05507        3.96087       -1.81505
H         -1.37943        3.68251       -3.01479
H         -1.71215        4.51408       -1.47316
C          4.57829       -1.85949       -1.51150
H          5.56509       -1.93666       -1.99143
H          4.43245       -2.77141       -0.91317
H          3.82460       -1.84438       -2.31295
C          4.78664        0.60950       -1.57812
H          4.84032        1.55884       -1.02597
H          5.74166        0.48093       -2.11076
H          3.98653        0.70099       -2.32833
C          5.65995       -0.69615        0.39010
H          6.62734       -0.84452       -0.11420
H          5.74481        0.20951        1.00770
H          5.49284       -1.54974        1.06461
