38
Azulene_H12_Int1_Sub15.log	Energy: -668161.8389886
C          1.05371       -1.61724        0.00689
C          2.27777       -1.69587       -0.62012
C          0.64274       -0.75190        1.03563
C          3.45553       -0.92244       -0.44186
H          2.35078       -2.46284       -1.39910
C          1.41769        0.25447        1.71079
C         -0.68556       -0.72606        1.60919
C          3.62615        0.13228        0.49184
N          4.49791       -1.24029       -1.25136
C          2.73545        0.63284        1.42126
C          0.59057        0.83952        2.71807
C         -0.64971        0.24143        2.68022
H         -1.34198       -1.59717        1.59246
H          4.60314        0.61754        0.48299
H          3.12549        1.44951        2.03792
H          0.89924        1.65298        3.37461
H         -1.48924        0.46053        3.34025
O         -2.96118       -0.82149       -0.16296
C         -2.81212       -2.04739       -0.55031
O         -1.74735       -2.63102       -0.70181
C         -4.13503       -2.73479       -0.81787
H         -4.80776       -2.61562        0.04322
H         -4.62414       -2.25534       -1.67885
H         -3.96937       -3.79767       -1.03056
H          0.26247       -2.28790       -0.35030
Pd        -1.45165        0.44364        0.01661
O         -1.84490        1.97969       -1.48008
C         -0.83378        2.58285       -1.04547
O         -0.17357        2.05438       -0.09031
C         -0.41362        3.90833       -1.59486
H          0.67592        4.02194       -1.52555
H         -0.75457        4.01427       -2.63224
H         -0.88001        4.70365       -0.99309
H          4.33934       -1.98789       -1.91182
C          5.78049       -0.59710       -1.27167
H          6.40427       -1.07681       -2.03623
H          6.30573       -0.68609       -0.30509
H          5.70534        0.47526       -1.52249
