33
Azulene_H8_deriv1_Int1_Sub26.log	Energy: -1185422.8512524
C         -0.64975       -1.39361       -0.98059
C          0.52343       -0.99842       -1.64760
C         -0.87568       -1.62680        0.39624
C          1.78425       -0.70619       -1.14246
H          0.42904       -0.89306       -2.72950
C          0.09226       -1.52661        1.44103
H         -1.80295       -2.14953        0.64136
C          2.24236       -0.75164        0.19667
Cl         2.90837       -0.23473       -2.37102
C          1.40470       -1.13882        1.37071
H         -0.26942       -1.78438        2.44149
C          3.50417       -0.47334        0.73536
C          2.23265       -1.06215        2.53103
Cl         4.94625        0.03229       -0.03491
C          3.48910       -0.66261        2.14849
H          1.89551       -1.28845        3.54180
H          4.35770       -0.50463        2.78647
O         -3.42248       -0.20444        0.51508
C         -4.07603       -0.97181       -0.31014
O         -3.59886       -1.55271       -1.26983
C         -5.54321       -1.06887        0.04249
H         -5.67256       -1.25462        1.11750
H         -6.02813       -0.10714       -0.18259
H         -6.01425       -1.86335       -0.54826
H         -1.51577       -1.62692       -1.60955
Pd        -1.57653        0.40030        0.20400
O         -1.79965        2.52290        0.23870
C         -0.54774        2.62606        0.12857
O          0.12868        1.54733        0.06825
C          0.12964        3.94907        0.03488
H          1.14549        3.88506        0.44509
H          0.20431        4.22965       -1.02721
H         -0.45957        4.71478        0.55453
