33
Azulene_H18_Int1_Sub18.log	Energy: -897112.9697722
C          0.19737       -0.82651       -1.33283
C         -0.63466       -1.37152       -0.28250
C         -0.65400       -0.02216       -2.16750
C         -1.96781       -0.80515       -0.44720
C         -0.19787       -2.28995        0.67311
C         -1.91985        0.00619       -1.62047
H         -0.34585        0.49017       -3.07807
C         -3.07954       -0.96236        0.37561
C         -0.93317       -2.84328        1.72167
H          0.86158       -2.55912        0.58164
Cl        -3.24481        0.92788       -2.20042
C         -3.20472       -1.75679        1.51081
H         -3.96372       -0.39404        0.07024
C         -2.25422       -2.59776        2.09645
H         -0.38790       -3.55317        2.35009
H         -4.18095       -1.72968        2.00285
H         -2.59729       -3.14227        2.98170
O          2.81535        0.18212       -0.60057
C          3.34617       -0.98274       -0.40160
O          2.75970       -1.97732        0.00346
C          4.82426       -1.00940       -0.72391
H          5.19962       -2.03840       -0.67471
H          5.00741       -0.57896       -1.71835
H          5.36242       -0.38375        0.00370
H          1.08985       -1.34327       -1.68734
Pd         0.98396        0.64883       -0.02856
O          1.26078        2.29914        1.35763
C          0.01047        2.38012        1.43001
O         -0.68687        1.54840        0.75556
C         -0.66836        3.42977        2.24586
H         -0.90962        4.28234        1.59236
H         -1.60880        3.04142        2.65785
H         -0.00344        3.77919        3.04516
