33
Azulene_H18_Int1_Sub26.log	Energy: -897111.9967685
C         -0.43124       -1.05393        1.28951
C          0.57813       -1.32892        0.29091
C          0.22989       -0.38001        2.37120
C          1.81783       -0.72195        0.77168
C          0.32832       -2.06241       -0.87011
C          1.55659       -0.16240        2.05034
H         -0.25537       -0.08319        3.30146
C          3.02883       -0.65414        0.06840
C          1.22205       -2.36560       -1.89376
H         -0.71272       -2.39214       -0.97308
H          2.28710        0.38286        2.64343
C          3.35006       -1.20928       -1.17118
Cl         4.32391        0.20856        0.83327
C          2.55376       -1.97414       -2.02190
H          0.81976       -2.96678       -2.71353
H          4.37235       -1.02145       -1.50670
H          3.05763       -2.30915       -2.93353
O         -3.00107       -0.03326        0.44286
C         -3.42184       -1.14912       -0.06452
O         -2.72391       -1.99975       -0.59942
C         -4.92013       -1.31612        0.06356
H         -5.21240       -2.32480       -0.25154
H         -5.23966       -1.12735        1.09799
H         -5.42099       -0.57011       -0.57129
H         -1.32228       -1.67355        1.39348
Pd        -1.15427        0.61786        0.19307
O         -1.38779        2.46889       -0.91152
C         -0.14489        2.62227       -0.82096
O          0.52930        1.72142       -0.21638
C          0.54345        3.82981       -1.36507
H          0.60628        4.58785       -0.56907
H          1.56473        3.57744       -1.67800
H         -0.03149        4.25041       -2.19933
