31
Benzene_H10_Int1_Sub100.log	Energy: -584301.7165168
C          0.31095       -1.65494       -0.73867
C          1.61763       -1.34364       -1.18387
C          0.02924       -1.67698        0.65141
C          2.60954       -1.02177       -0.27591
H          1.83254       -1.35411       -2.25561
C          1.07202       -1.39390        1.56750
H         -0.93058       -2.03857        1.02609
C          2.32907       -1.06614        1.10977
C          3.96275       -0.57190       -0.74801
H          0.86411       -1.43760        2.63835
H          3.13932       -0.83992        1.80422
O         -2.35828       -0.55246       -0.76660
C         -3.19621       -0.89660        0.17522
O         -2.93990       -0.89673        1.36553
C         -4.54699       -1.29547       -0.37266
H         -5.14923       -1.74956        0.42310
H         -5.05784       -0.39818       -0.75294
H         -4.43405       -1.98919       -1.21724
H         -0.43348       -2.02623       -1.44620
Pd        -0.67217        0.28364       -0.19161
O         -1.08230        2.36266       -0.23455
C          0.11965        2.57947        0.08384
O          0.88292        1.57038        0.22772
C          0.62550        3.96109        0.32031
H          0.39574        4.24445        1.35911
H          1.71269        4.00081        0.17931
H          0.11536        4.66865       -0.34569
H          3.88965        0.51624       -0.95255
H          4.18947       -1.06352       -1.71492
O          4.92896       -0.84844        0.22523
H          5.73603       -0.37925       -0.00297
