33
Benzofuran_H13_Int1_Sub17.log	Energy: -818840.4899868
C          0.58327       -1.52294        0.37344
C         -0.68566       -1.28571        1.03077
C          0.33544       -1.27743       -0.98776
C         -1.57581       -0.92214        0.01127
C         -1.12273       -1.31987        2.35798
H          0.89705       -1.57009       -1.87389
O         -0.96895       -0.94701       -1.19922
C         -2.89956       -0.56921        0.25736
C         -2.44644       -0.98900        2.61900
H         -0.43694       -1.59314        3.16204
C         -3.31833       -0.61723        1.58459
C         -3.81438       -0.15268       -0.85965
H         -2.81949       -1.00932        3.64459
H         -4.35199       -0.35357        1.81358
O          3.07217       -0.50517       -0.90333
C          3.82471       -1.20210       -0.09474
O          3.51991       -1.52621        1.04028
C          5.14997       -1.57173       -0.71836
H          5.00533       -1.95938       -1.73609
H          5.76981       -0.66622       -0.79958
H          5.66193       -2.31050       -0.09071
H          1.47367       -1.99298        0.80083
Pd         1.45818        0.38803       -0.19886
O          2.00494        2.43747        0.05545
C          0.80852        2.67313        0.37706
O         -0.00394        1.68877        0.39212
C          0.33477        4.04755        0.69776
H         -0.52579        4.00486        1.37691
H          1.15222        4.63792        1.13013
H          0.01470        4.53301       -0.23724
F         -5.03884        0.12742       -0.40833
F         -3.93280       -1.11655       -1.77599
F         -3.35644        0.93398       -1.48428
