33
Benzoisoxazole_H11_deriv1_Int1_Sub16.log	Energy: -977614.0651997
C          0.31079       -0.96654        1.29147
C         -0.77597       -0.33158        1.93952
C         -0.01540       -1.57079        0.05039
C         -2.04160       -0.24140        1.38560
O         -0.75457        0.30064        3.11402
C         -1.32769       -1.50446       -0.51086
H          0.69707       -2.25360       -0.41685
C         -2.35050       -0.80450        0.11704
C         -2.75901        0.51949        2.35383
N         -1.99568        0.82475        3.36558
Cl        -1.58168       -2.36600       -1.99030
O         -3.59311       -0.61392       -0.32717
H         -3.79897        0.84163        2.34257
O          2.68281       -0.66364       -0.57698
C          3.51502       -0.85713        0.41201
O          3.27864       -0.63133        1.58498
C          4.84443       -1.39728       -0.06142
H          5.38788       -0.59594       -0.58419
H          5.43243       -1.73668        0.79938
H          4.69819       -2.21502       -0.78023
H          1.26761       -1.13854        1.79619
Pd         1.02237        0.35890       -0.32487
O          1.41317        2.19806       -1.31291
C          0.22401        2.54536       -1.07755
O         -0.52214        1.71160       -0.46278
C         -0.29172        3.88735       -1.46403
H          0.19311        4.22717       -2.38793
H         -1.38274        3.86177       -1.57583
H         -0.04017        4.60021       -0.66342
C         -3.82567       -0.23055       -1.67332
H         -3.01128        0.41516       -2.03656
H         -3.92682       -1.10224       -2.33383
H         -4.76566        0.33656       -1.66871
