30
Benzene_H10_Int1_Sub52.log	Energy: -723868.3402234
C         -0.51699        1.25666        1.30859
C          0.55236        1.94292        1.93737
C         -0.76015        1.47049       -0.07153
C          1.35095        2.80050        1.20816
H          0.72462        1.78882        3.00420
C          0.06487        2.36438       -0.79750
C         -2.07993        1.09543       -0.71321
C          1.10544        3.00815       -0.16317
H          2.17767        3.32231        1.69424
H         -0.13992        2.53839       -1.85518
H          1.74550        3.68761       -0.72920
O         -0.90869       -1.51519        1.07692
C         -1.42952       -2.33032        0.19001
O         -1.11139       -2.33780       -0.98208
C         -2.48247       -3.23475        0.77763
H         -2.79832       -3.96746        0.02578
H         -2.09730       -3.74341        1.67239
H         -3.34560       -2.62687        1.08763
H         -1.24238        0.69441        1.89960
Pd         0.53337       -0.43196        0.30558
O          2.03985       -1.84341       -0.14105
C          2.77483       -0.90167       -0.54498
O          2.31229        0.28293       -0.45162
C          4.11362       -1.15705       -1.14365
H          3.98027       -1.36823       -2.21598
H          4.75561       -0.27379       -1.03751
H          4.57333       -2.03788       -0.67776
F         -1.90895        0.53474       -1.90400
F         -2.79998        2.21192       -0.90222
F         -2.81140        0.28395        0.04304
