33
Benzoisoxazole_H9_Int1_Sub32.log	Energy: -689302.4376931
C         -0.40986       -0.97159        1.57842
C          0.40365       -1.35450        0.48149
C          0.10195       -0.10350        2.59818
C          1.72379       -0.84101        0.45549
H          0.08981       -2.14579       -0.20194
C          1.37813        0.40306        2.55151
H         -0.55705        0.15281        3.42985
C          2.16937        0.01830        1.45068
C          2.86212       -0.92597       -0.40865
H          1.77112        1.07216        3.31761
O          3.42512        0.39392        1.20388
O          2.90899       -1.63861       -1.51867
N          3.85656       -0.20199        0.03521
O         -2.17442       -1.15119       -0.81373
C         -3.24886       -1.39502       -0.11095
O         -3.46815       -0.94520        0.99952
C         -4.21584       -2.30409       -0.83265
H         -3.69008       -3.16805       -1.26192
H         -5.00100       -2.63238       -0.14144
H         -4.67026       -1.75043       -1.66793
H         -1.37608       -1.45062        1.75041
Pd        -0.97195        0.26653       -0.16356
O         -1.53517        1.99919       -1.25880
C         -0.58342        2.61774       -0.70887
O          0.13640        1.97053        0.12206
C         -0.28596        4.04496       -1.01281
H         -1.06717        4.47144       -1.65260
H         -0.20410        4.61105       -0.07441
H          0.68763        4.10738       -1.52136
C          4.12219       -1.58843       -2.24951
H          4.34765       -0.55621       -2.55831
H          4.95972       -1.96092       -1.63993
H          3.97784       -2.22601       -3.12899
