42
Benzofuran_H9_Int1_Sub20.log	Energy: -706046.1805855
C         -0.28942       -1.27883        0.78765
C          1.02741       -0.79584        0.76743
C         -1.09388       -0.82945        1.87214
C          1.55370        0.07973        1.72151
O          1.95408       -1.07303       -0.17106
C         -0.56018        0.04707        2.86668
H         -2.05868       -1.30901        2.04891
C          0.73548        0.50518        2.79522
C          2.89995        0.33178        1.30159
C          3.08401       -0.38680        0.15352
H         -1.20446        0.34752        3.69503
H          1.12860        1.18630        3.55274
H          3.63444        0.97055        1.78376
C          4.24043       -0.54949       -0.78577
O         -3.23204       -0.79581       -0.05722
C         -3.18395       -1.81631       -0.86914
O         -2.17783       -2.23656       -1.41332
C         -4.54413       -2.44042       -1.08527
H         -5.06774       -2.57272       -0.12852
H         -5.15394       -1.76133       -1.69998
H         -4.43293       -3.40068       -1.60268
H         -0.63225       -2.04247        0.08271
Pd        -1.66165        0.38294        0.10765
O         -2.12683        2.02985       -1.15463
C         -1.04797        2.57260       -0.78932
O         -0.33050        1.95059        0.05950
C         -0.60118        3.87869       -1.35127
H          0.08263        4.38038       -0.65538
H         -0.06553        3.68919       -2.29436
H         -1.47040        4.51035       -1.57441
C          5.42595        0.27048       -0.28031
H          6.27890        0.15670       -0.96582
H          5.17903        1.34161       -0.22478
H          5.74878       -0.06267        0.71779
C          4.62031       -2.03570       -0.85663
H          3.76984       -2.64347       -1.19732
H          5.45232       -2.17968       -1.56303
H          4.93669       -2.40961        0.12899
C          3.81452       -0.05622       -2.17690
H          4.64207       -0.18075       -2.89226
H          2.94864       -0.62334       -2.54769
H          3.53898        1.00897       -2.14873
