36
Benzothiophene_H13_deriv1_Int1_Sub6.log	Energy: -1046120.9785975
C         -0.06350        0.70178        0.99631
C         -1.45318        0.37051        0.74674
C          0.54968       -0.20236        1.88876
C         -1.86283       -0.78046        1.44869
C         -2.37094        1.00578       -0.10684
C          1.77191        0.04397        2.71580
S         -0.57479       -1.44466        2.42021
C         -3.15244       -1.29750        1.32189
C         -3.65957        0.50453       -0.22344
C         -1.93245        2.20110       -0.90978
C         -4.04662       -0.63756        0.49055
H         -3.45088       -2.19665        1.86406
H         -4.36933        1.00431       -0.88339
H         -5.06522       -1.01654        0.38448
O          2.83691        0.30707       -0.16995
C          3.05870        1.57663        0.00240
O          2.25540        2.39999        0.40988
C          4.48096        1.95333       -0.34857
H          5.18744        1.31051        0.19540
H          4.64783        1.78218       -1.42208
H          4.65641        3.00776       -0.10557
H          0.41391        1.66292        0.76738
Pd         1.11322       -0.64018       -0.22632
O          1.48439       -1.88880       -1.91500
C          0.34358       -2.39985       -1.74808
O         -0.35870       -1.97138       -0.77457
C         -0.16644       -3.48513       -2.63180
H          0.27080       -4.44089       -2.30426
H         -1.25906       -3.55228       -2.56378
H          0.15293       -3.30550       -3.66658
F         -2.92565        2.69393       -1.65153
F         -0.93288        1.88197       -1.74082
F         -1.49064        3.18606       -0.12329
H          1.47362        0.18666        3.76604
H          2.26929        0.95593        2.36634
H          2.47811       -0.79686        2.67153
