33
Benzo13dioxol_H8_deriv1_Int1_Sub14.log	Energy: -943687.5135496
C         -0.18308       -0.66209        1.62176
C         -1.49949       -0.24764        1.64904
C          0.21211       -1.44013        0.48989
C         -2.39017       -0.57724        0.63210
O         -2.13758        0.52551        2.56502
C         -0.74102       -1.79738       -0.50385
H          1.15429       -1.98770        0.53065
C         -2.06868       -1.36400       -0.47614
O         -3.58560       -0.01392        0.88597
C         -3.38289        0.85796        1.99187
Cl        -0.22031       -2.81371       -1.79800
C         -3.06652       -1.67185       -1.54310
H         -4.18718        0.70989        2.72769
H         -3.36781        1.90251        1.62742
O          2.75092       -0.16215       -0.19869
C          3.32211       -0.45036        0.93631
O          2.75988       -0.49853        2.01703
C          4.80145       -0.71998        0.77980
H          4.98141       -1.41464       -0.05221
H          5.31349        0.22229        0.53379
H          5.20524       -1.12378        1.71574
H          0.54672       -0.46528        2.40841
Pd         0.90395        0.49663       -0.26424
O          1.12785        2.41136       -1.18273
C         -0.12372        2.53727       -1.15895
O         -0.80682        1.57423       -0.67302
C         -0.79785        3.77508       -1.64453
H         -1.80888        3.54351       -2.00289
H         -0.87977        4.48336       -0.80542
H         -0.19944        4.24657       -2.43402
H         -2.75264       -1.23038       -2.50185
H         -4.05295       -1.27077       -1.27978
H         -3.15168       -2.75742       -1.70013
