48
Benzoisoxazole_H8_deriv1_Int1_Sub27.log	Energy: -789279.9185433
C          1.24261        0.98639        1.38762
C          1.68104        1.73003        0.25648
C         -0.12154        1.06666        1.72092
C          0.74970        2.53061       -0.44545
C          2.92913        2.08761       -0.37403
C         -1.03574        1.81886        0.97184
H         -0.47185        0.51901        2.59767
C         -0.59178        2.58274       -0.12382
O          1.39331        3.22110       -1.39918
H          3.92688        1.70595       -0.16347
N          2.74099        2.93780       -1.33342
C         -2.49970        1.78943        1.30245
H         -1.28247        3.20276       -0.69769
O          3.15550       -0.89529        0.30219
C          3.19902       -1.67437        1.35257
O          2.22588       -1.97162        2.02104
C          4.59002       -2.17911        1.64947
H          4.61471       -2.62906        2.64902
H          4.85884       -2.93990        0.90122
H          5.32632       -1.36759        1.57025
H          1.93888        0.49772        2.06873
Pd         1.33706       -0.47346       -0.32692
O          0.88333       -2.03324       -1.67002
C         -0.20894       -1.45951       -1.93781
O         -0.45165       -0.35959       -1.34045
C         -1.18589       -2.05250       -2.89117
H         -1.70858       -2.88075       -2.38904
H         -1.92072       -1.30166       -3.20542
H         -0.65484       -2.46743       -3.75811
H         -2.94407        2.76902        1.06333
H         -2.63577        1.63447        2.38578
C         -3.27173        0.70044        0.54122
H         -3.02314        0.80636       -0.53169
C         -4.77979        0.89435        0.70165
H         -5.06793        1.90149        0.35595
H         -5.03093        0.85273        1.77816
C         -5.57700       -0.16920       -0.04542
H         -6.65659       -0.01858        0.11667
H         -5.40703       -0.04942       -1.13091
C         -5.16366       -1.57590        0.37242
H         -5.71897       -2.32902       -0.20992
H         -5.43931       -1.73647        1.43055
C         -3.66121       -1.77484        0.21231
H         -3.40124       -1.71862       -0.85997
H         -3.36387       -2.77989        0.55289
C         -2.86843       -0.71179        0.96371
H         -3.04605       -0.82312        2.05023
H         -1.79156       -0.86413        0.79971
