42
Benzofuran_H9_deriv1_Int1_Sub20.log	Energy: -994362.9156551
C          0.54110       -1.00159        1.21572
C         -0.78151       -0.56535        1.38238
C          0.83295       -1.66640       -0.00523
C         -1.78618       -0.72953        0.42323
O         -1.25382        0.10238        2.45031
C         -0.20336       -1.87422       -0.97027
H          1.77390       -2.20682       -0.12176
C         -1.48371       -1.41055       -0.78175
C         -2.95761       -0.08566        0.96810
C         -2.55181        0.38147        2.18649
Cl         0.20913       -2.72082       -2.42021
H         -2.23231       -1.56808       -1.55750
C         -4.31294        0.08268        0.32390
H         -3.07637        0.92737        2.96572
O          3.36923       -0.29441        0.08683
C          3.84833       -0.31705        1.30072
O          3.20523       -0.11907        2.31668
C          5.33082       -0.61120        1.32326
H          5.56970       -1.45417        0.66055
H          5.87373        0.26714        0.94298
H          5.65045       -0.82183        2.35066
H          1.28132       -0.93244        2.01994
Pd         1.55804        0.39459       -0.25628
O          1.89882        2.33356       -1.05676
C          0.65529        2.44332       -1.23863
O         -0.07878        1.45619       -0.90503
C          0.05066        3.68803       -1.79000
H         -0.91949        3.46829       -2.25286
H         -0.10656        4.39741       -0.96278
H          0.73528        4.15240       -2.51109
C         -5.25463        0.84159        1.26041
H         -6.24104        0.96314        0.78804
H         -5.40227        0.30095        2.20819
H         -4.86916        1.84686        1.49077
C         -4.14822        0.88524       -0.97519
H         -3.48186        0.37976       -1.68874
H         -5.12491        1.02718       -1.46401
H         -3.71537        1.87553       -0.76829
C         -4.91758       -1.29500        0.02101
H         -5.90430       -1.18275       -0.45499
H         -4.28403       -1.88291       -0.65870
H         -5.04677       -1.87828        0.94521
