30
Benzene_H10_Int1_Sub121.log	Energy: -594337.9796797
C          0.35432       -1.63922       -0.82353
C          1.66646       -1.36102       -1.23445
C          0.01513       -1.65154        0.55606
C          2.64350       -1.06065       -0.28558
H          1.91325       -1.35988       -2.29865
C          1.04554       -1.39974        1.50306
H         -0.94273       -2.04258        0.90392
C          2.32197       -1.10059        1.09721
N          3.89983       -0.67420       -0.69901
H          0.80712       -1.44608        2.56758
H          3.11077       -0.89645        1.81998
O         -2.36721       -0.53085       -0.73960
C         -3.20168       -0.90965        0.19040
O         -2.94778       -0.94522        1.38107
C         -4.54980       -1.30307       -0.36986
H         -5.15047       -1.78239        0.41222
H         -5.06622       -0.39972       -0.72762
H         -4.43068       -1.97337       -1.23239
H         -0.38573       -1.96348       -1.55836
Pd        -0.68166        0.30503       -0.15322
O         -1.04497        2.40004       -0.29101
C          0.15130        2.59809        0.05438
O          0.88573        1.57933        0.26581
C          0.68846        3.97592        0.24808
H          0.49423        4.28494        1.28685
H          1.77242        3.99086        0.07865
H          0.17589        4.67923       -0.42018
H          4.19072       -1.03418       -1.60405
O          4.92059       -0.79940        0.21944
H          5.18702        0.10872        0.41297
