34
Benzo13dioxol_H8_deriv1_Int1_Sub16.log	Energy: -990846.9698656
C          0.26165       -0.88051        1.35948
C         -0.87967       -0.20372        1.80273
C          0.09556       -1.64990        0.16818
C         -2.07803       -0.22940        1.11765
O         -1.01255        0.56080        2.91243
C         -1.14055       -1.69320       -0.50683
H          0.88663       -2.32862       -0.15342
C         -2.25760       -0.96296       -0.06957
O         -2.99204        0.52330        1.78800
C         -2.24111        1.23968        2.75634
Cl        -1.27920       -2.62853       -1.94613
O         -3.37657       -1.02221       -0.78696
H         -2.78656        1.25112        3.71039
H         -2.05495        2.26863        2.39071
O          2.79692       -0.66699       -0.34947
C          3.54407       -0.67190        0.72112
O          3.20359       -0.26626        1.81833
C          4.91927       -1.23990        0.45424
H          4.84880       -2.17331       -0.12089
H          5.48908       -0.52302       -0.15582
H          5.44055       -1.40772        1.40407
H          1.16861       -0.93227        1.96866
Pd         1.09377        0.31493       -0.35046
O          1.51593        2.06917       -1.47377
C          0.30421        2.39742       -1.36784
O         -0.46834        1.60972       -0.72646
C         -0.21295        3.67420       -1.93649
H         -1.27771        3.57861       -2.18383
H         -0.10048        4.46700       -1.18069
H          0.37154        3.95784       -2.82057
C         -4.33451        0.01255       -0.68107
H         -4.85108       -0.00900        0.28905
H         -3.86220        0.99795       -0.81885
H         -5.05647       -0.16344       -1.48769
