46
Benzofuran_H9_deriv1_Int1_Sub27.log	Energy: -1042916.7869733
C          0.78952        0.29148       -1.43403
C         -0.50382        0.67004       -1.05476
C          1.83364        1.18993       -1.07920
C         -0.79845        1.85063       -0.36543
O         -1.63056       -0.04068       -1.26400
C          1.52745        2.41091       -0.39619
H          2.82641        1.07230       -1.51696
C          0.24472        2.74526       -0.03041
C         -2.21392        1.82373       -0.15541
C         -2.66004        0.65890       -0.71693
Cl         2.84235        3.47033       -0.02476
H          0.04833        3.67348        0.50724
H         -2.82392        2.56678        0.35058
C         -4.00074        0.02605       -0.81463
O          3.43994       -1.14953       -0.60358
C          3.24036       -2.03840       -1.53758
O          2.15430       -2.34751       -1.99668
C          4.52889       -2.67709       -2.00328
H          5.29809       -1.91329       -2.18192
H          4.90523       -3.33967       -1.20943
H          4.34467       -3.26264       -2.91173
H          0.98095       -0.58823       -2.05758
Pd         1.91576       -0.42293        0.40967
O          1.96923       -1.49131        2.24657
C          1.00783       -0.78087        2.64967
O          0.56080        0.11196        1.85774
C          0.38639       -0.99141        3.98727
H         -0.11503       -0.07571        4.32414
H         -0.36365       -1.79300        3.90295
H          1.14766       -1.31257        4.70957
H         -4.19101       -0.15664       -1.89033
C         -5.10781        0.93325       -0.28094
H         -5.10099        1.89431       -0.81991
H         -4.89891        1.16271        0.77955
C         -6.47443        0.26664       -0.39262
H         -7.24958        0.92780        0.02627
H         -6.72533        0.13328       -1.46034
C         -6.49651       -1.09049        0.30239
H         -7.48064       -1.56936        0.17599
H         -6.35997       -0.94317        1.38917
C         -5.39054       -1.99975       -0.22184
H         -5.58926       -2.24262       -1.28129
H         -5.38934       -2.95921        0.31945
C         -4.02181       -1.34003       -0.10960
H         -3.76540       -1.18575        0.95390
H         -3.23743       -1.98571       -0.53263
