34
Benzofuran_H13_deriv1_Int1_Sub24.log	Energy: -967578.4084832
C          0.02068       -1.29383       -0.28158
C         -1.38753       -0.95203       -0.29495
C          0.50866       -0.82444       -1.52252
C         -1.61646       -0.31296       -1.51568
C         -2.42358       -1.10735        0.63326
Cl         1.87239       -1.31971       -2.41342
O         -0.47121       -0.25872       -2.26331
C         -2.85363        0.20572       -1.87085
C         -3.67928       -0.60833        0.28585
H         -2.23030       -1.59338        1.58860
C         -3.88074        0.03857       -0.95531
H         -3.00728        0.71558       -2.82225
O         -4.76959       -0.69024        1.07250
H         -4.88462        0.41026       -1.16796
O          2.73499       -0.50638        0.47452
C          2.75492       -1.35348        1.46477
O          1.77951       -1.70973        2.10512
C          4.14671       -1.87271        1.74310
H          4.59327       -2.26935        0.82036
H          4.78403       -1.04268        2.08152
H          4.10553       -2.65029        2.51472
H          0.51476       -1.99079        0.39668
Pd         1.10062        0.53144        0.10030
O          1.53252        2.46684        0.88621
C          0.41812        2.85675        0.44132
O         -0.30349        2.00747       -0.17700
C         -0.03761        4.26615        0.60011
H         -1.12796        4.32931        0.49943
H          0.29304        4.66032        1.56966
H          0.42739        4.87580       -0.18994
C         -4.64601       -1.29984        2.32756
H         -4.33790       -2.35676        2.24061
H         -3.92031       -0.77055        2.96990
H         -5.63612       -1.25600        2.79803
