49
Benzothiophene_H9_deriv1_Int1_Sub27.log	Energy: -981872.9889775
C         -1.74359        0.41078       -1.23217
C         -1.91570        1.70395       -0.68896
C         -0.44138        0.04915       -1.66051
C         -0.83779        2.60096       -0.57480
S         -3.38345        2.38546       -0.08199
C          0.66321        0.96047       -1.57208
H         -0.31736       -0.86618       -2.24401
C          0.44735        2.20748       -1.02836
C         -1.24496        3.84091        0.01045
C         -2.57484        3.85656        0.31639
C          2.01766        0.53319       -2.07246
H          1.27430        2.91754       -0.94387
H         -0.57221        4.67931        0.19377
H         -3.14068        4.67254        0.76532
O         -1.16772       -2.54527       -0.67201
C         -2.41764       -2.86849       -0.86667
O         -3.36986       -2.13724       -0.65809
C         -2.57278       -4.28109       -1.38130
H         -1.87217       -4.47294       -2.20564
H         -2.32531       -4.98452       -0.57216
H         -3.60697       -4.44567       -1.70596
H         -2.60389       -0.23420       -1.43319
Pd        -0.77614       -0.88622        0.31669
O         -0.40938       -1.55030        2.30585
C         -0.11537       -0.36366        2.61594
O         -0.20010        0.52425        1.70476
C          0.36434       -0.00321        3.97929
H         -0.02541       -0.71183        4.72036
H          1.46426       -0.06073        3.98521
H          0.07342        1.02582        4.22557
H          2.29920        1.16154       -2.93562
H          1.94749       -0.49805       -2.45595
C          3.14532        0.59417       -1.03664
H          3.25399        1.64612       -0.70776
C          4.47505        0.17172       -1.66125
H          4.70667        0.81632       -2.52603
H          4.36587       -0.85395       -2.06049
C          5.61944        0.19892       -0.65410
H          6.55299       -0.14090       -1.13100
H          5.79688        1.24211       -0.33491
C          5.30383       -0.65256        0.57080
H          6.12544       -0.59344        1.30301
H          5.23346       -1.71269        0.26672
C          3.98612       -0.22756        1.20816
H          4.09377        0.79471        1.61512
H          3.74442       -0.87810        2.06492
C          2.83999       -0.24412        0.20322
H          2.63779       -1.28574       -0.11077
H          1.91883        0.12477        0.67778
