33
Benzofuran_H13_deriv1_Int1_Sub14.log	Energy: -920414.3369166
C          0.07798       -1.34439        0.54471
C         -1.28452       -1.14089        0.99434
C         -0.00303       -1.29068       -0.86455
C         -2.05308       -0.97222       -0.16326
C         -1.89555       -1.05750        2.24940
Cl         1.02615       -1.96668       -2.04184
O         -1.27698       -1.08995       -1.28373
C         -3.41619       -0.69412       -0.17243
C         -3.26226       -0.81177        2.27870
H         -1.31364       -1.17677        3.16475
C         -3.99869       -0.63240        1.09580
C         -4.16161       -0.46519       -1.44769
H         -3.77905       -0.74681        3.23850
H         -5.07091       -0.43019        1.16395
O          2.66485       -0.09717       -0.15536
C          3.23210       -0.61973        0.89515
O          2.66494       -0.90683        1.93608
C          4.71071       -0.85235        0.68397
H          4.86989       -1.45812       -0.21946
H          5.21363        0.11194        0.52105
H          5.13610       -1.35425        1.56077
H          0.91829       -1.70962        1.13956
Pd         0.81562        0.58206       -0.10096
O          1.06083        2.70320       -0.13840
C         -0.19463        2.81153       -0.19071
O         -0.88300        1.73838       -0.19972
C         -0.86278        4.14074       -0.26969
H         -1.90341        4.06655        0.06892
H         -0.30593        4.87623        0.32496
H         -0.85394        4.47602       -1.31833
H         -4.02964       -1.30623       -2.14545
H         -3.78473        0.43633       -1.95665
H         -5.23551       -0.33349       -1.26040
