41
Benzoisoxazole_H11_Int1_Sub4.log	Energy: -716079.5655105
C          0.18154       -1.04885        0.95132
C         -1.16073       -1.09424        1.41145
C          0.44271       -1.64246       -0.31935
C         -2.21302       -1.59645        0.65627
O         -1.60749       -0.67922        2.59521
C         -0.66224       -2.12467       -1.09241
C          1.86164       -2.00951       -0.78094
C         -1.95734       -2.11523       -0.63032
C         -3.33019       -1.41370        1.52771
N         -2.96578       -0.87997        2.65844
H         -0.46030       -2.53426       -2.08227
H         -2.76875       -2.50192       -1.24949
H         -4.38085       -1.65466        1.36818
O          1.90019        1.20872        0.37493
C          1.80565        1.92758        1.46689
O          0.75539        2.14063        2.04177
C          3.13786        2.44966        1.94497
H          3.61575        3.04043        1.15047
H          2.99241        3.06628        2.83956
H          3.80923        1.60907        2.17578
H          0.98206       -0.83114        1.65688
Pd         0.11925        0.73181       -0.32738
O         -0.41124        2.46975       -1.40400
C         -1.51188        1.92796       -1.69913
O         -1.70454        0.73582       -1.29333
C         -2.56549        2.65773       -2.45698
H         -2.10892        3.41183       -3.11007
H         -3.17719        1.95339       -3.03471
H         -3.21819        3.17357       -1.73571
C          1.88659       -3.52021       -1.07645
H          2.91667       -3.82576       -1.31535
H          1.55392       -4.10248       -0.20347
H          1.25372       -3.79667       -1.93147
C          2.22016       -1.23304       -2.05477
H          2.31357       -0.15744       -1.84343
H          3.18396       -1.58845       -2.45123
H          1.46240       -1.36650       -2.84188
C          2.91145       -1.73075        0.29597
H          3.90237       -2.02331       -0.08231
H          2.94515       -0.66451        0.55260
H          2.71950       -2.31977        1.20645
