39
Benzene_H10_Int1_Sub43.log	Energy: -611080.1144611
C          0.76776       -1.17032        0.59872
C          2.03488       -0.53035        0.43620
C         -0.05402       -0.89182        1.71855
C          2.41663        0.37744        1.40775
C          2.87896       -0.86429       -0.78935
C          0.38417        0.03601        2.69235
H         -0.96305       -1.47089        1.89642
C          1.60270        0.65533        2.52706
H          3.36776        0.90257        1.31972
H         -0.24493        0.24521        3.55913
H          1.95152        1.37978        3.26660
O         -1.75144       -1.31528       -0.75142
C         -2.79632       -1.70189       -0.06813
O         -3.10724       -1.27018        1.02701
C         -3.60112       -2.75617       -0.79242
H         -4.36212       -3.16823       -0.11928
H         -4.09057       -2.29736       -1.66448
H         -2.94521       -3.55347       -1.16877
H          0.49496       -2.00523       -0.04979
Pd        -0.78281        0.26535       -0.08431
O         -1.67951        1.88837       -1.10809
C         -0.83775        2.65877       -0.56804
O          0.02841        2.13522        0.20514
C         -0.86830        4.13145       -0.79165
H         -1.46773        4.59427        0.00753
H          0.14731        4.54429       -0.74062
H         -1.33891        4.35977       -1.75586
C          4.18536       -0.07142       -0.81377
H          4.76207       -0.33621       -1.71260
H          4.00219        1.01344       -0.84436
H          4.81576       -0.29229        0.06121
C          3.21475       -2.36329       -0.78001
H          2.30961       -2.98771       -0.80719
H          3.82107       -2.62147       -1.66221
H          3.78740       -2.63433        0.12018
C          2.07539       -0.52313       -2.05476
H          2.67221       -0.74060       -2.95456
H          1.14355       -1.10450       -2.12068
H          1.80590        0.54416       -2.06827
