42
Benzothiophene_H13_deriv1_Int1_Sub5.log	Energy: -1095421.6742297
C          0.07036       -0.64938        0.83929
C          1.46195       -0.24238        0.85538
C         -0.76484        0.27202        1.50464
C          1.65131        0.98304        1.52467
C          2.57225       -0.87310        0.26869
C         -2.11287       -0.02116        2.11275
S          0.15463        1.63169        2.14131
C          2.90961        1.57839        1.62269
C          3.82793       -0.29326        0.37900
C          2.37734       -2.15121       -0.50202
C          3.99353        0.92284        1.05587
H          3.03794        2.53405        2.13428
H          4.68712       -0.78961       -0.07326
H          4.99002        1.36306        1.13109
O         -2.52394       -0.55242       -0.94369
C         -2.68306       -1.82993       -0.75376
O         -1.92010       -2.56958       -0.15505
C         -3.97348       -2.33342       -1.36119
H         -4.81668       -1.70955       -1.03309
H         -3.91428       -2.24893       -2.45628
H         -4.13449       -3.37976       -1.07661
H         -0.29510       -1.65516        0.59503
Pd        -0.88780        0.51721       -0.71035
O         -0.95825        1.62246       -2.53580
C          0.08693        2.22711       -2.17216
O          0.58586        1.91708       -1.04110
C          0.71140        3.28805       -3.01106
H          0.16119        4.22892       -2.85620
H          1.75878        3.43753       -2.72184
H          0.63080        3.02103       -4.07275
F          3.53032       -2.62869       -0.97388
F          1.56443       -1.96265       -1.54840
F          1.82813       -3.10355        0.25662
H         -2.50019       -0.88870        1.56156
C         -1.93187       -0.44656        3.57210
H         -2.89864       -0.76654        3.98913
H         -1.22900       -1.28833        3.65648
H         -1.55003        0.38201        4.18835
C         -3.08376        1.14413        1.97020
H         -3.26093        1.38111        0.91137
H         -4.05057        0.89382        2.43123
H         -2.70171        2.04874        2.47205
