34
Benzo13dioxol_H9_Int1_Sub24.log	Energy: -702531.6035447
C         -0.20167       -1.23136       -1.31923
C          0.82341       -0.66811       -2.10918
C          0.02772       -1.59108        0.03659
C          2.03050       -0.48565       -1.48112
H          0.65807       -0.36723       -3.14226
C          1.32581       -1.45455        0.63816
H         -0.69277       -2.21491        0.56982
C          2.29381       -0.86657       -0.14654
O          3.14896        0.05956       -1.99811
O          1.43879       -1.89824        1.89264
O          3.59731       -0.57367        0.13625
C          4.03407        0.25990       -0.91401
H          5.05429       -0.02184       -1.21087
H          3.98925        1.32058       -0.59902
O         -2.62562       -0.61960        0.58734
C         -3.45861       -0.90120       -0.37629
O         -3.22674       -0.78242       -1.56672
C         -4.78904       -1.39654        0.14528
H         -4.64125       -2.15996        0.92152
H         -5.32500       -0.55638        0.61185
H         -5.38581       -1.79655       -0.68300
H         -1.17132       -1.45789       -1.77117
Pd        -0.95736        0.34398        0.17975
O         -1.38432        2.38145        0.66679
C         -0.18328        2.66206        0.41481
O          0.58588        1.71301        0.04686
C          0.34641        4.04815        0.56759
H         -0.46759        4.77748        0.47501
H          0.79270        4.14778        1.56916
H          1.12989        4.23884       -0.17711
C          2.60450       -1.60387        2.63152
H          3.49796       -2.05572        2.17524
H          2.75658       -0.51640        2.71606
H          2.44781       -2.02869        3.63041
