33
Benzoisoxazole_H10_Int1_Sub32.log	Energy: -689301.0424258
C          0.46007       -1.44107        1.10401
C         -0.39506       -0.96911        2.14458
C         -0.00709       -1.58927       -0.23009
C         -1.70738       -0.63938        1.89438
H          0.01853       -0.87601        3.14977
C         -1.37111       -1.26619       -0.43655
H          0.57006       -2.12575       -0.98529
C         -2.18975       -0.79171        0.57741
H         -2.36449       -0.27230        2.68443
O         -2.04574       -1.34266       -1.58464
C         -3.43063       -0.58637       -0.11162
N         -3.34081       -0.91250       -1.37440
O         -4.53378       -0.12757        0.45042
O          2.63338       -0.70846       -0.87815
C          3.58775       -1.03277       -0.04622
O          3.51938       -0.92330        1.16506
C          4.81378       -1.56042       -0.75335
H          5.50274       -1.99849       -0.02160
H          4.53454       -2.30039       -1.51592
H          5.31125       -0.72784       -1.27303
H          1.45657       -1.80065        1.37269
Pd         1.10808        0.30525       -0.15424
O          1.61742        2.32994       -0.49802
C          0.48857        2.66271       -0.04022
O         -0.29037        1.72746        0.33739
C          0.08681        4.09035        0.09011
H          0.54361        4.68479       -0.71120
H         -1.00629        4.18208        0.07549
H          0.45786        4.47173        1.05403
C         -5.66108        0.01001       -0.39720
H         -5.44509        0.70625       -1.22209
H         -5.94563       -0.96216       -0.82821
H         -6.47129        0.40073        0.22884
