46
Benzofuran_H13_deriv1_Int1_Sub27.log	Energy: -1042912.7351760
C          1.22969       -1.33878        0.39496
C         -0.19677       -1.13068        0.52698
C          1.46426       -1.28532       -0.99742
C         -0.69033       -0.96746       -0.77308
C         -1.08111       -1.03444        1.60591
Cl         2.72330       -1.97247       -1.91738
O          0.31386       -1.08607       -1.69097
C         -2.01865       -0.70221       -1.05992
C         -2.41888       -0.78605        1.33476
H         -0.72312       -1.14708        2.63092
C         -2.90259       -0.61567        0.01825
H         -2.35604       -0.56551       -2.08847
H         -3.12051       -0.71211        2.16869
C         -4.36312       -0.32706       -0.22767
O          3.93028       -0.09971        0.24711
C          4.27632       -0.67943        1.36099
O          3.51436       -1.02330        2.24958
C          5.76919       -0.90437        1.44143
H          6.10575       -1.48596        0.57121
H          6.28999        0.06339        1.40612
H          6.01547       -1.43173        2.37033
H          1.92196       -1.70143        1.16004
Pd         2.10798        0.58187       -0.06939
O          2.35968        2.70390       -0.00765
C          1.14127        2.81931       -0.31210
O          0.46814        1.75061       -0.48461
C          0.50329        4.15305       -0.49663
H         -0.58432        4.07631       -0.37679
H          0.92885        4.87420        0.21292
H          0.72308        4.50884       -1.51506
H         -4.50062       -0.25094       -1.32137
C         -4.79471        1.01633        0.37582
H         -4.14977        1.82004       -0.01438
H         -4.63023        0.99045        1.46787
C         -6.26289        1.31361        0.09256
H         -6.55238        2.26735        0.56247
H         -6.40137        1.45038       -0.99533
C         -7.16633        0.18406        0.57501
H         -8.21800        0.40031        0.32732
H         -7.11337        0.12375        1.67738
C         -6.74414       -1.15504       -0.01946
H         -6.90442       -1.13418       -1.11273
H         -7.37863       -1.96760        0.36953
C         -5.27695       -1.45656        0.26473
H         -5.13557       -1.58856        1.35227
H         -4.97570       -2.40728       -0.20370
