39
Benzo13dioxol_H9_Int1_Sub5.log	Energy: -704671.8350995
C          0.07543       -1.32652       -0.76438
C         -0.98921       -1.55328        0.16533
C         -0.11556       -0.58274       -1.96079
C         -2.18190       -0.97661       -0.18550
C         -0.78759       -2.24403        1.49003
C         -1.38862       -0.04960       -2.30150
H          0.68573       -0.57222       -2.70268
C         -2.38394       -0.25397       -1.38458
O         -3.34028       -0.98342        0.51473
H         -1.55458        0.50792       -3.22240
O         -3.66204        0.17074       -1.42507
C         -4.23433       -0.12770       -0.16492
H         -5.20064       -0.63512       -0.30916
H         -4.36487        0.80736        0.41053
O          2.58891        0.14983       -1.03296
C          3.27475       -0.61370       -0.22905
O          2.83746       -1.11341        0.79518
C          4.69963       -0.81627       -0.68786
H          4.73848       -1.01721       -1.76713
H          5.26534        0.11002       -0.50596
H          5.15817       -1.63661       -0.12301
H          0.99973       -1.88815       -0.62786
Pd         0.81670        0.70474       -0.36937
O          1.15075        2.49172        0.75885
C         -0.08784        2.54897        0.97828
O         -0.82778        1.65450        0.44898
C         -0.68086        3.59549        1.85927
H         -0.02940        4.47715        1.89488
H         -1.68618        3.86373        1.50977
H         -0.76993        3.18452        2.87695
H         -1.77118       -2.64741        1.78497
C          0.21461       -3.39135        1.41848
H          0.23916       -3.92870        2.37832
H         -0.04975       -4.11559        0.63253
H          1.23123       -3.01316        1.22927
C         -0.36260       -1.21084        2.54091
H         -1.07110       -0.37035        2.58148
H         -0.31201       -1.67418        3.53848
H          0.63555       -0.81674        2.29213
