37
Benzoisoxazole_H8_deriv1_Int1_Sub31.log	Energy: -701481.9724971
C          0.33394        1.08497        1.34404
C          0.39201        1.87599        0.16250
C         -0.94235        0.73201        1.81938
C         -0.81143        2.31306       -0.43848
C          1.39107        2.58012       -0.60411
C         -2.11718        1.10127        1.14991
H         -1.00737        0.14345        2.73630
C         -2.05848        1.93582        0.01865
O         -0.52097        3.13429       -1.45908
H          2.47442        2.54005       -0.50348
N          0.84605        3.29054       -1.54054
C         -3.44570        0.50307        1.55082
H         -2.96717        2.26751       -0.48732
O          2.58642       -0.18030        0.02556
C          3.00797       -0.82737        1.08229
O          2.27261       -1.35095        1.89901
C          4.51329       -0.86599        1.18131
H          4.80915       -1.20778        2.18020
H          4.90063       -1.56750        0.42715
H          4.94597        0.12012        0.96383
H          1.21635        0.87630        1.94882
Pd         0.66275       -0.36947       -0.34038
O          0.53960       -2.09401       -1.54730
C         -0.70378       -1.91229       -1.65519
O         -1.19590       -0.88360       -1.08279
C         -1.57925       -2.87247       -2.38092
H         -0.99070       -3.46134       -3.09469
H         -2.03019       -3.55721       -1.64569
H         -2.39056       -2.33611       -2.89015
H         -4.25824        1.18265        1.24558
H         -3.50524        0.40555        2.64712
N         -3.67902       -0.80080        0.96101
H         -3.50730       -0.74977       -0.04137
C         -2.91636       -1.89151        1.51982
H         -3.22586       -2.83306        1.04022
H         -3.14018       -1.99027        2.59470
H         -1.81586       -1.80894        1.40967
