46
Benzofuran_H9_deriv1_Int1_Sub19.log	Energy: -1042913.0050804
C         -1.09617       -1.24075       -1.02573
C          0.18467       -0.85673       -1.44880
C         -1.21637       -1.62804        0.33604
C          1.30361       -0.81910       -0.61022
O          0.50676       -0.43205       -2.68476
C         -0.06273       -1.63111        1.18412
H         -2.12259       -2.12722        0.68341
C          1.17320       -1.22529        0.74020
C          2.38211       -0.31219       -1.42119
C          1.82085       -0.11038       -2.64913
Cl        -0.27243       -2.14719        2.82083
H          2.02002       -1.21587        1.42597
C          3.79171       -0.01325       -1.01940
H          2.24264        0.25840       -3.58154
O         -3.77491       -0.29632        0.28840
C         -4.40465       -0.57954       -0.81911
O         -3.90171       -0.61045       -1.92866
C         -5.87063       -0.86402       -0.58480
H         -6.00309       -1.54156        0.26975
H         -6.38075        0.07874       -0.33613
H         -6.31407       -1.29126       -1.49194
H         -1.93448       -1.34089       -1.72339
Pd        -1.95109        0.44144        0.23732
O         -2.22916        2.51069        0.63973
C         -0.97529        2.64867        0.62991
O         -0.26906        1.60783        0.42379
C         -0.33139        3.97887        0.81686
H          0.69720        3.85730        1.17869
H         -0.30415        4.49475       -0.15542
H         -0.92343        4.59022        1.50977
H          4.31205        0.36620       -1.91817
C          4.55032       -1.26191       -0.55098
H          4.53021       -2.02518       -1.34506
H          4.02498       -1.70428        0.31372
C          5.98416       -0.93127       -0.15337
H          6.49438       -1.83841        0.20814
H          6.54074       -0.59949       -1.04869
C          6.03372        0.16753        0.90266
H          7.07828        0.41367        1.15225
H          5.57168       -0.20473        1.83528
C          5.28916        1.41480        0.43884
H          5.81681        1.85024       -0.42923
H          5.30070        2.18639        1.22538
C          3.85299        1.09460        0.04230
H          3.28633        0.77383        0.93388
H          3.33720        1.99191       -0.33484
