39
Benzofuran_H13_deriv1_Int1_Sub13.log	Energy: -969713.2809188
C          0.52534       -1.40391        0.51754
C         -0.77838       -1.25328        1.13224
C          0.28459       -1.24197       -0.86522
C         -1.67504       -1.00232        0.08679
C         -1.24423       -1.28030        2.45016
Cl         1.17434       -1.81338       -2.20096
O         -1.02812       -1.02218       -1.12033
C         -3.03249       -0.74324        0.25054
C         -2.60057       -1.05923        2.65072
H         -0.56266       -1.46515        3.28202
C         -3.46799       -0.79503        1.57728
C         -3.89755       -0.37974       -0.93306
H         -3.00673       -1.08238        3.66422
H         -4.52440       -0.62089        1.79122
O          3.01437       -0.07950       -0.36767
C          3.69551       -0.66653        0.57598
O          3.24726       -1.02683        1.65141
C          5.14178       -0.87169        0.18734
H          5.20113       -1.40584       -0.77158
H          5.62455        0.10608        0.04480
H          5.66026       -1.43478        0.97205
H          1.42709       -1.80787        0.98264
Pd         1.18135        0.57407       -0.05834
O          1.40323        2.70300        0.00480
C          0.15005        2.79334        0.10195
O         -0.52382        1.70985        0.11238
C         -0.54182        4.11083        0.16883
H         -1.50535        4.00868        0.68344
H          0.09789        4.84885        0.66880
H         -0.73011        4.45925       -0.85857
H         -3.51871       -0.96514       -1.78847
C         -5.36751       -0.72713       -0.73924
H         -5.92818       -0.53554       -1.66626
H         -5.50492       -1.78542       -0.47061
H         -5.82939       -0.11221        0.04948
C         -3.71015        1.10229       -1.27327
H         -2.64821        1.35014       -1.40981
H         -4.25666        1.36148       -2.19335
H         -4.09426        1.73371       -0.45620
