34
Benzofuran_H9_deriv1_Int1_Sub16.log	Energy: -967574.0279275
C          0.28303       -1.40612        0.85538
C         -0.82488       -1.06344        1.65055
C          0.02759       -1.50452       -0.53896
C         -2.08960       -0.78470        1.13471
O         -0.82756       -0.91652        2.98909
C         -1.27346       -1.24957       -1.07014
H          0.76779       -1.96724       -1.19427
C         -2.32930       -0.85769       -0.26291
C         -2.90433       -0.44351        2.26011
C         -2.08130       -0.54709        3.34041
Cl        -1.50459       -1.44473       -2.77107
O         -3.55623       -0.55715       -0.72303
H         -3.95546       -0.16866        2.25713
H         -2.24561       -0.39725        4.40468
O          2.70091       -0.41228       -0.73878
C          3.51523       -0.89371        0.16141
O          3.24973       -1.04554        1.34063
C          4.86461       -1.24661       -0.42091
H          4.74821       -1.81016       -1.35675
H          5.40174       -0.31754       -0.66397
H          5.44334       -1.82331        0.31019
H          1.23390       -1.71994        1.29711
Pd         1.01428        0.44024       -0.19114
O          1.41535        2.52192       -0.36173
C          0.21066        2.74997       -0.06855
O         -0.54707        1.74589        0.14291
C         -0.31153        4.13918        0.06401
H         -1.39175        4.16392       -0.12641
H         -0.13182        4.48317        1.09438
H          0.22421        4.81060       -0.61875
C         -3.67082        0.67344       -1.42085
H         -3.27996        1.50198       -0.80841
H         -3.12944        0.64566       -2.37908
H         -4.74038        0.82365       -1.61357
