30
Benzene_H10_Int1_Sub13.log	Energy: -661620.6085217
C          0.79597       -1.37845        0.39744
C          2.12786       -0.90898        0.22525
C          0.09152       -1.05028        1.57961
C          2.71429       -0.13413        1.20187
C          2.84988       -1.23218       -1.04777
C          0.72472       -0.25966        2.57350
H         -0.88226       -1.49642        1.79415
C          2.01221        0.19002        2.38258
H          3.73315        0.23655        1.06211
H          0.17832       -0.02055        3.48770
H          2.49812        0.80358        3.14385
O         -1.82301       -1.02590       -0.73953
C         -2.85411       -1.29247        0.01750
O         -2.98879       -0.90752        1.16549
C         -3.88610       -2.13735       -0.69130
H         -4.63299       -2.49056        0.02941
H         -4.37924       -1.52621       -1.46200
H         -3.40882       -2.98434       -1.20308
H          0.39385       -2.12082       -0.29544
Pd        -0.55214        0.32345       -0.08152
O         -1.21429        2.12627       -0.96465
C         -0.21916        2.71142       -0.45341
O          0.58104        2.00626        0.24389
C          0.00028        4.17408       -0.62494
H         -0.57098        4.70763        0.15044
H          1.06341        4.41723       -0.50625
H         -0.37086        4.49747       -1.60570
F          2.70637       -2.54056       -1.35350
F          2.32314       -0.52453       -2.07559
H          3.92756       -1.00151       -0.98712
