30
Benzofuran_H9_deriv1_Int1_Sub10.log	Energy: -1184079.7921209
C          0.16212       -0.64646        1.46562
C         -0.95331        0.12059        1.84178
C         -0.02669       -1.49638        0.34477
C         -2.17725        0.09445        1.17172
O         -1.00470        0.99482        2.86414
C         -1.28340       -1.55395       -0.33911
H          0.71021       -2.26891        0.11756
C         -2.34322       -0.75852        0.05229
C         -3.01514        1.03126        1.85349
C         -2.24526        1.53255        2.85930
Cl        -1.42042       -2.62326       -1.67823
Cl        -3.84318       -0.76909       -0.77780
H         -4.04437        1.28956        1.61988
H         -2.44489        2.26296        3.63950
O          2.71229       -0.82730       -0.29199
C          3.44845       -0.84101        0.78586
O          3.12465       -0.37975        1.86657
C          4.78979       -1.49674        0.55269
H          4.67115       -2.43705       -0.00277
H          5.40930       -0.82893       -0.06462
H          5.28761       -1.67276        1.51352
H          1.07383       -0.68811        2.07203
Pd         1.07740        0.26606       -0.37758
O          1.63589        1.91887       -1.58862
C          0.44263        2.32447       -1.52836
O         -0.38429        1.62034       -0.85964
C          0.01020        3.59133       -2.17985
H         -1.06579        3.56308       -2.39189
H          0.21040        4.42594       -1.49019
H          0.58905        3.75990       -3.09673
