41
Benzoisoxazole_H9_Int1_Sub4.log	Energy: -716082.2371384
C         -0.13927       -1.05836        1.08583
C          0.88034       -1.33209        0.13339
C          0.08080       -0.21597        2.22524
C          2.10656       -0.66921        0.36260
C          0.69619       -2.32747       -1.00830
C          1.29471        0.39656        2.45064
H         -0.76522       -0.07482        2.89986
C          2.28080        0.14985        1.48946
C          3.38029       -0.54669       -0.28907
H          1.47891        1.05207        3.30132
O          3.50889        0.66671        1.48571
H          3.73649       -0.99444       -1.21527
N          4.18655        0.22700        0.37153
O         -2.55077       -0.31301       -0.36809
C         -3.31867       -0.41604        0.68316
O         -2.98661       -0.11576        1.81638
C         -4.68613       -0.96408        0.34849
H         -4.59121       -1.93258       -0.16354
H         -5.27534       -1.07641        1.26607
H         -5.19689       -0.28004       -0.34469
H         -1.03900       -1.67054        1.09558
Pd        -0.82694        0.61666       -0.15436
O         -1.12090        2.40886       -1.25958
C          0.07132        2.72743       -1.00303
O          0.75963        1.90538       -0.31166
C          0.65979        4.01941       -1.45138
H          0.11243        4.40720       -2.31909
H          0.57740        4.74643       -0.62870
H          1.72496        3.88859       -1.68225
C          1.76585       -3.42513       -0.87726
H          1.62195       -4.17572       -1.66929
H          2.78859       -3.03509       -0.96779
H          1.68653       -3.93733        0.09359
C         -0.68001       -2.99472       -0.97282
H         -1.49426       -2.25865       -1.03912
H         -0.76925       -3.68221       -1.82699
H         -0.81857       -3.58940       -0.05671
C          0.84752       -1.59685       -2.35165
H          0.78337       -2.31843       -3.18045
H          0.04392       -0.85504       -2.47996
H          1.80609       -1.06638       -2.43664
