36
Benzothiophene_H13_deriv1_Int1_Sub17.log	Energy: -1232856.1339508
C         -0.66093        0.59369       -1.16957
C          0.68069        0.04226       -1.08258
C         -1.50948       -0.23655       -1.91943
C          0.79317       -1.16594       -1.80093
C          1.78368        0.53846       -0.35837
H         -2.46887        0.06305       -2.34449
S         -0.69214       -1.62633       -2.58538
C          1.98545       -1.88364       -1.82336
C          2.98599       -0.17793       -0.38898
C          1.51879        1.80988        0.43115
C          3.06556       -1.37302       -1.12711
H          2.07267       -2.82252       -2.37251
C          4.24978        0.24500        0.34252
H          4.01058       -1.91423       -1.14011
O         -3.57778        0.57976       -0.13469
C         -3.56172        1.88654       -0.09723
O         -2.56357        2.58296       -0.08974
C         -4.95566        2.46846       -0.05098
H         -5.61149        1.96825       -0.77639
H         -5.37952        2.29197        0.94909
H         -4.91227        3.54688       -0.24345
H         -0.95410        1.61078       -0.88247
Pd        -1.96535       -0.50455        0.17940
O         -2.36361       -1.43942        2.05038
C         -1.27753       -2.06931        1.92841
O         -0.58916       -1.85793        0.87487
C         -0.81722       -3.04706        2.95210
H         -1.31328       -4.01192        2.76476
H          0.26832       -3.18882        2.88457
H         -1.10813       -2.70507        3.95360
F          2.56743        2.28072        1.08609
F          0.55328        1.58957        1.32939
F          1.09425        2.77779       -0.38666
F          4.68966        1.43302       -0.06638
F          5.24096       -0.62708        0.12047
F          4.07063        0.28865        1.66163
