33
Benzoisoxazole_H11_Int1_Sub32.log	Energy: -689300.5703630
C         -0.12744       -1.53909        0.02014
C          1.21709       -1.26052       -0.32165
C         -0.44775       -1.36480        1.39308
C          2.15472       -0.82192        0.60216
O          1.76576       -1.35025       -1.53443
C          0.52585       -0.92856        2.34493
H         -1.41427       -1.72322        1.75371
C          1.81678       -0.64827        1.96062
C          3.32252       -0.65437       -0.21162
N          3.08814       -0.96836       -1.45866
H          0.22489       -0.82634        3.38876
H          2.56465       -0.30578        2.67767
O          4.49446       -0.23705        0.23247
O         -2.96113       -0.41110        0.33434
C         -3.39036       -1.15650       -0.64939
O         -2.70468       -1.57445       -1.56489
C         -4.86920       -1.44830       -0.54115
H         -5.43034       -0.53152       -0.77676
H         -5.14297       -2.23660       -1.25224
H         -5.13507       -1.73924        0.48427
H         -0.81788       -2.00458       -0.69133
Pd        -1.17315        0.40667        0.24119
O         -1.58251        2.42367       -0.25926
C         -0.34607        2.66471       -0.17501
O          0.41919        1.69941        0.15307
C          0.21338        4.01017       -0.47940
H         -0.52703        4.78791       -0.25449
H          1.14132        4.17269        0.08312
H          0.44715        4.05521       -1.55444
C          5.52906       -0.13149       -0.72989
H          5.73329       -1.10964       -1.19188
H          5.25019        0.57670       -1.52524
H          6.41412        0.22801       -0.19272
