39
Benzothiophene_H9_Int1_Sub13.log	Energy: -884023.1256813
C         -0.37815       -0.19602       -1.44979
C         -1.69201       -0.60745       -1.12736
C          0.00547        1.12119       -1.09572
C         -2.59207        0.25573       -0.47876
S         -2.39734       -2.15471       -1.43698
C         -0.90770        2.01694       -0.44047
H          0.93927        1.51424       -1.50387
C         -2.17365        1.57082       -0.14303
C         -3.85452       -0.37500       -0.25022
C         -3.88303       -1.65839       -0.71508
C         -0.44503        3.40165       -0.05135
H         -2.87530        2.23545        0.36819
H         -4.69948        0.10956        0.24003
H         -4.71693       -2.35866       -0.67291
O          2.53775       -0.14474       -0.61091
C          2.83093       -1.15042       -1.39030
O          2.06722       -2.05397       -1.68201
C          4.25125       -1.08624       -1.90326
H          4.47874       -0.08294       -2.28929
H          4.94180       -1.27891       -1.06861
H          4.39827       -1.84284       -2.68297
H          0.26647       -0.82762       -2.06666
Pd         0.85829       -0.22404        0.42080
O          1.44402       -0.98881        2.31509
C          0.25528       -0.83580        2.71021
O         -0.58215       -0.34140        1.88733
C         -0.17558       -1.24678        4.07611
H          0.67855       -1.23502        4.76426
H         -0.97981       -0.59098        4.43339
H         -0.56859       -2.27391        4.02394
H         -1.32361        3.91741        0.37206
C          0.62452        3.32946        1.04078
H          0.89953        4.33833        1.38585
H          0.26611        2.75122        1.90550
H          1.53990        2.84050        0.66967
C          0.03507        4.21281       -1.25383
H         -0.73925        4.27348       -2.03317
H          0.29455        5.23803       -0.94847
H          0.93666        3.77006       -1.70601
