30
Benzofuran_H14_Int1_Sub18.log	Energy: -895765.7403822
C          0.18693       -1.32709       -0.81269
C          0.13706       -1.52781        0.57904
O         -1.02983       -0.98000       -1.29663
C         -1.24359       -1.27709        0.95188
H          0.88777       -2.05615        1.16586
C         -1.88280       -0.92604       -0.24549
C         -1.95938       -1.29334        2.15223
C         -3.22499       -0.56397       -0.29109
C         -3.30571       -0.95010        2.10989
H         -1.47320       -1.56191        3.09156
C         -3.93191       -0.58721        0.90814
Cl        -3.96172       -0.10859       -1.77620
H         -3.89610       -0.95495        3.02834
H         -4.98810       -0.31315        0.89560
O          2.83844       -0.57259        0.53509
C          3.47910       -1.15450       -0.44216
O          3.03180       -1.35472       -1.55835
C          4.88030       -1.55970       -0.04772
H          5.49794       -0.65428        0.05017
H          4.87885       -2.05998        0.93036
H          5.30821       -2.21262       -0.81743
H          0.96553       -1.58677       -1.53616
Pd         1.13122        0.35855        0.20120
O          1.61768        2.44062        0.29449
C          0.39241        2.68898        0.13240
O         -0.40246        1.69644        0.02136
C         -0.12341        4.08252        0.03680
H         -0.04972        4.41000       -1.01185
H         -1.17715        4.12129        0.33945
H          0.49009        4.75505        0.64939
