41
Benzoisoxazole_H9_Int1_Sub28.log	Energy: -716088.0291261
C         -0.68847       -0.35724        1.90544
C          0.29024       -0.88917        1.02805
C         -0.42454        0.82948        2.66186
C          1.52525       -0.19309        0.92307
H          0.15446       -1.88498        0.60335
C          0.76922        1.50063        2.55685
H         -1.20161        1.19425        3.33602
C          1.72004        0.96566        1.66530
C          2.74194       -0.30664        0.16468
H          0.98189        2.40915        3.12133
O          2.92084        1.47561        1.39405
C          3.11213       -1.33944       -0.87025
N          3.54422        0.68114        0.46002
O         -2.06326       -1.52260       -0.48972
C         -3.17672       -1.75354        0.15573
O         -3.61318       -1.05665        1.05379
C         -3.88471       -2.99267       -0.33943
H         -3.18300       -3.83450       -0.41875
H         -4.71155       -3.24129        0.33616
H         -4.27904       -2.80050       -1.34846
H         -1.59275       -0.92504        2.13479
Pd        -1.19022        0.21753       -0.18201
O         -1.84685        1.44217       -1.78736
C         -1.08480        2.35418       -1.36264
O         -0.39433        2.10392       -0.32013
C         -1.00781        3.68675       -2.02203
H         -1.31195        3.60900       -3.07295
H         -1.69777        4.37283       -1.50679
H          0.00755        4.09412       -1.93356
C          4.49880       -1.04201       -1.43980
H          4.75950       -1.80019       -2.19356
H          4.53008       -0.05119       -1.91434
H          5.26474       -1.05367       -0.65151
C          3.11145       -2.72678       -0.21449
H          2.12650       -2.98702        0.20055
H          3.37170       -3.49369       -0.96005
H          3.84880       -2.77820        0.60066
C          2.06908       -1.28799       -1.99699
H          2.32843       -2.01598       -2.78086
H          1.05599       -1.52769       -1.64053
H          2.03604       -0.28837       -2.45615
