27
Benzene_H10_Int1_Sub160.log	Energy: -698925.4694526
C          0.72745       -1.46723        1.30316
C         -0.29231       -1.00856        2.17637
C          0.44534       -1.60900       -0.07851
C         -1.53380       -0.67272        1.68184
H         -0.08841       -0.92329        3.24569
C         -0.84087       -1.28224       -0.57171
H          1.17092       -2.06662       -0.75656
C         -1.80099       -0.81267        0.30139
H         -2.31209       -0.30228        2.35080
H         -1.05279       -1.40365       -1.63476
I         -3.69906       -0.28704       -0.41726
O          3.29711       -0.59264        0.33599
C          3.71542       -1.17769       -0.75478
O          3.03682       -1.35977       -1.75005
C          5.16070       -1.60721       -0.66063
H          5.40687       -2.26393       -1.50335
H          5.80079       -0.71278       -0.69413
H          5.35541       -2.11216        0.29548
H          1.65894       -1.86519        1.71061
Pd         1.55780        0.32772        0.27153
O          2.05684        2.34172       -0.14432
C          0.83199        2.63478       -0.04924
O          0.02562        1.69110        0.23792
C          0.33457        4.01582       -0.29629
H          0.16060        4.13606       -1.37683
H         -0.61449        4.17886        0.22934
H          1.08935        4.75013        0.01235
