28
Benzene_H10_Int1_Sub16.log	Energy: -570317.9799269
C          0.64545       -1.67048       -0.03355
C          2.03774       -1.45776       -0.26664
C          0.11051       -1.39352        1.24614
C          2.84032       -0.95317        0.74626
C          2.59133       -1.76373       -1.54947
C          0.95876       -0.89475        2.26734
H         -0.91562       -1.67308        1.49562
C          2.29578       -0.67359        2.01324
H          3.89972       -0.77638        0.55363
H          0.53661       -0.69330        3.25359
H          2.94560       -0.27918        2.79671
O         -1.93528       -0.64939       -0.80851
C         -2.93403       -0.80920        0.02037
O         -2.88186       -0.57358        1.21450
C         -4.17946       -1.31589       -0.66538
H         -4.91707       -1.62057        0.08632
H         -4.59848       -0.50845       -1.28437
H         -3.94083       -2.15152       -1.33747
H          0.04862       -2.20079       -0.77818
Pd        -0.36466        0.31598       -0.12387
O         -0.69740        2.31725       -0.70492
C          0.43433        2.61741       -0.23149
O          1.11918        1.67372        0.28470
C          0.94128        4.01620       -0.24048
H          0.56810        4.52966        0.65921
H          2.03807        4.02476       -0.21824
H          0.56056        4.54882       -1.12106
N          3.03713       -2.01256       -2.59029
