32
Benzoisoxazole_H9_Int1_Sub9.log	Energy: -828876.0033424
C         -0.08503        0.94326       -1.00456
C         -0.25482       -0.26370       -1.72357
C         -1.17027        1.48841       -0.23947
C         -1.53207       -0.88766       -1.66293
H          0.49822       -0.58537       -2.44558
C         -2.39716        0.87637       -0.16950
C         -0.90611        2.75366        0.53464
C         -2.54111       -0.32235       -0.89311
C         -2.16270       -2.05042       -2.19787
H         -3.21661        1.28964        0.41796
O         -3.63924       -1.07581       -0.96682
H         -1.75994       -2.81346       -2.86330
N         -3.39426       -2.15003       -1.78205
O          2.46713       -0.77037       -0.90875
C          3.20948        0.29884       -1.03498
O          2.87527        1.42509       -0.71533
C          4.56574       -0.01345       -1.62199
H          4.47417       -0.69845       -2.47575
H          5.06154        0.91760       -1.92082
H          5.17324       -0.52179       -0.85811
H          0.82338        1.54215       -1.13679
Pd         0.81703       -0.70786        0.16102
O          1.33969       -1.72202        1.94643
C          0.14550       -1.59475        2.33420
O         -0.66699       -1.01232        1.53999
C         -0.30440       -2.06497        3.67155
H          0.33320       -2.88697        4.01926
H         -0.21523       -1.22872        4.38235
H         -1.35768       -2.37058        3.63189
F         -2.02788        3.25673        1.05358
F         -0.35945        3.68825       -0.24180
F         -0.06237        2.52519        1.54351
