30
Benzo13dioxol_H8_deriv1_Int1_Sub18.log	Energy: -1207359.4921917
C          0.38191       -1.16866       -0.55313
C          1.60314       -0.50716       -0.55008
C         -0.22116       -1.37648        0.72501
C          2.19588       -0.06189        0.61627
O          2.36892       -0.10316       -1.60271
C          0.43362       -0.93762        1.91193
H         -1.05975       -2.06818        0.82004
C          1.64373       -0.26062        1.87875
O          3.33057        0.60376        0.29951
C          3.56177        0.33496       -1.05103
Cl        -0.31382       -1.27301        3.42705
H          2.12991        0.09907        2.78450
Cl         4.83116       -0.94492       -1.20337
H          3.94084        1.22198       -1.56978
O         -2.85301       -0.77590       -0.32506
C         -2.94013       -1.52363       -1.39116
O         -2.03988       -1.72115       -2.18864
C         -4.31489       -2.12847       -1.55454
H         -4.68244       -2.52554       -0.59864
H         -5.01365       -1.33965       -1.87157
H         -4.28397       -2.91528       -2.31746
H         -0.08504       -1.58147       -1.45315
Pd        -1.29455        0.38604       -0.04179
O         -2.08241        2.33128       -0.34950
C         -0.95769        2.80543       -0.03381
O         -0.03991        1.97634        0.28204
C         -0.68779        4.26922       -0.05675
H          0.12737        4.51823        0.63403
H         -0.38282        4.55365       -1.07581
H         -1.60051        4.82440        0.19378
