29
Benzoisoxazole_H11_Int1_Sub10.log	Energy: -905800.4086206
C         -0.24036       -1.00484        1.17439
C         -1.51568       -0.48487        1.48959
C         -0.13308       -1.62432       -0.09666
C         -2.60089       -0.54792        0.62392
O         -1.86773        0.14132        2.61509
C         -1.26287       -1.69816       -0.97786
H          0.75051       -2.21854       -0.33737
C         -2.48405       -1.16562       -0.64251
C         -3.62397        0.11617        1.36738
N         -3.18166        0.51110        2.52808
Cl        -1.03567       -2.47814       -2.50111
H         -3.32479       -1.22266       -1.33450
H         -4.65966        0.31688        1.09501
O          2.50957       -0.46537       -0.14264
C          3.09302       -0.65226        1.01171
O          2.55908       -0.52313        2.09886
C          4.54357       -1.04531        0.85948
H          5.11766       -0.16363        0.53709
H          4.93192       -1.40203        1.82066
H          4.65978       -1.81278        0.08229
H          0.56932       -1.06032        1.91166
Pd         0.74591        0.39676       -0.25403
O          1.19973        2.32743       -0.98844
C         -0.03813        2.57226       -1.02982
O         -0.83081        1.63917       -0.67061
C         -0.56355        3.90096       -1.44387
H          0.13749        4.38743       -2.13328
H         -1.55570        3.79233       -1.89981
H         -0.66305        4.53132       -0.54653
