45
Benzoisoxazole_H8_Int1_Sub27.log	Energy: -764629.0556204
C         -1.12523       -1.45047        1.02533
C         -0.57698       -1.65939       -0.27191
C         -0.21439       -1.07248        2.03326
C          0.80232       -1.48025       -0.48688
C         -1.02978       -2.13795       -1.55345
C          1.13979       -0.87707        1.76486
H         -0.59086       -0.92981        3.04764
C          1.70348       -1.07077        0.49223
O          1.09324       -1.78182       -1.76519
H         -2.04126       -2.39877       -1.86041
N         -0.05201       -2.19505       -2.40398
H          1.78997       -0.55920        2.58082
C          3.14226       -0.81683        0.14083
O         -3.30359       -0.29422       -0.50533
C         -4.18530       -0.37876        0.45604
O         -3.93683       -0.18360        1.63223
C         -5.56252       -0.74172       -0.04549
H         -6.21034       -0.99522        0.80196
H         -5.98467        0.12005       -0.58393
H         -5.51081       -1.57709       -0.75742
H         -2.14278       -1.73835        1.28995
Pd        -1.56162        0.47861       -0.00322
O         -1.69207        2.51019       -0.59381
C         -0.48825        2.65913       -0.25076
O          0.11481        1.64107        0.22616
C          0.22368        3.95881       -0.39766
H         -0.46350        4.73477       -0.75429
H          0.66007        4.24863        0.56869
H          1.05178        3.83527       -1.11131
H          3.45200       -1.63330       -0.53811
C          4.09526       -0.81094        1.33375
H          4.00894       -1.75616        1.89434
H          3.80664       -0.00202        2.02834
C          5.53478       -0.57921        0.88745
H          6.20310       -0.56756        1.76318
H          5.86106       -1.42771        0.25949
C          5.66969        0.71647        0.09498
H          6.70807        0.85024       -0.24832
H          5.44956        1.57103        0.76043
C          4.70961        0.74334       -1.08886
H          5.00617       -0.03368       -1.81618
H          4.77991        1.70586       -1.62089
C          3.27007        0.49554       -0.65549
H          2.90795        1.32161       -0.01974
H          2.60248        0.46332       -1.53007
