32
Benzoisoxazole_H8_Int1_Sub22.log	Energy: -642128.9854561
C          0.19523       -1.26401        1.14338
C          0.52004       -1.62709       -0.19361
C          1.22413       -0.70735        1.92487
C          1.84869       -1.45835       -0.65063
C         -0.09198       -2.33717       -1.29218
C          2.51562       -0.49261        1.42732
H          0.99622       -0.43119        2.95629
C          2.84572       -0.89571        0.12000
O          1.95811       -1.96589       -1.88749
H         -1.12387       -2.66949       -1.39056
N          0.74756       -2.51050       -2.26287
C          3.54624        0.19221        2.27199
H          3.85573       -0.77296       -0.27415
O         -2.25262       -0.50016       -0.30533
C         -3.00408       -0.48213        0.76474
O         -2.62868       -0.10530        1.86016
C         -4.40570       -0.97724        0.50010
H         -4.92844       -1.13409        1.45100
H         -4.94386       -0.22300       -0.09342
H         -4.38787       -1.90403       -0.08988
H         -0.75781       -1.52107        1.60751
Pd        -0.52189        0.43162       -0.15411
O         -0.92816        2.39446       -0.80683
C          0.29823        2.66621       -0.67726
O          1.06297        1.73230       -0.26849
C          0.84139        4.00971       -1.01728
H          0.09168        4.78324       -0.80801
H          1.76802        4.19848       -0.46119
H          1.06795        4.03407       -2.09447
H          4.55470       -0.20267        2.08292
H          3.32542        0.09090        3.34336
H          3.56198        1.26882        2.03477
