33
Benzothiophene_H9_deriv1_Int1_Sub18.log	Energy: -1123042.9902220
C         -0.17981       -1.48274        0.18332
C          1.11411       -1.29206       -0.35628
C         -0.41546       -1.01768        1.50033
C          2.12117       -0.65955        0.38659
S          1.65307       -1.74334       -1.93625
C          0.62126       -0.39156        2.27583
H         -1.33919       -1.31605        2.00256
C          1.86099       -0.21633        1.70742
C          3.32923       -0.56289       -0.37619
C          3.22280       -1.10207       -1.62664
C          0.31072        0.05156        3.67204
H          2.66665        0.26792        2.26416
Cl         4.75950        0.16612        0.23903
H          4.00259       -1.15180       -2.38462
O         -3.01112       -0.35074        0.44295
C         -3.46946       -1.21947       -0.41700
O         -2.82199       -1.72059       -1.31994
C         -4.92644       -1.54594       -0.18331
H         -5.11545       -1.73943        0.88155
H         -5.53665       -0.67646       -0.47045
H         -5.21424       -2.41142       -0.79170
H         -0.92734       -2.07816       -0.34956
Pd        -1.25303        0.47815        0.11277
O         -1.72394        2.34600       -0.77748
C         -0.49201        2.62336       -0.77503
O          0.30532        1.75500       -0.29299
C          0.01756        3.92624       -1.28628
H         -0.58210        4.25200       -2.14595
H         -0.08807        4.68183       -0.49259
H          1.07774        3.84232       -1.55483
H         -0.02491       -0.79580        4.29104
H         -0.50239        0.79461        3.67548
H          1.18801        0.50212        4.15502
