29
Benzooxazole_H10_Int1_Sub2.log	Energy: -905826.4889746
C          0.12582       -1.60425       -0.14894
C          1.24699       -1.63855       -1.04195
C          0.25440       -1.05845        1.15803
C          2.47915       -1.13054       -0.69839
Cl         1.00023       -2.34263       -2.59904
C          1.52820       -0.56590        1.47374
H         -0.55801       -1.13577        1.88991
C          2.60758       -0.58245        0.59484
H          3.32009       -1.14703       -1.39118
O          1.94695        0.01842        2.61992
N          3.69236       -0.00248        1.21939
C          3.24133        0.32224        2.38324
H          3.77919        0.80607        3.19771
O         -2.52384       -0.44986       -0.15773
C         -3.09747       -0.69623        0.98872
O         -2.55645       -0.62020        2.07836
C         -4.54845       -1.08599        0.82926
H         -4.66793       -1.81750        0.01854
H         -4.92951       -1.48772        1.77551
H         -5.12737       -0.19246        0.55111
H         -0.75861       -2.18952       -0.40718
Pd        -0.75713        0.41263       -0.23223
O         -1.19716        2.39757       -0.83663
C          0.04323        2.62415       -0.88556
O          0.82625        1.66583       -0.57484
C          0.58584        3.94035       -1.31915
H          1.58259        4.10156       -0.89010
H          0.67447        3.93789       -2.41662
H         -0.10304        4.74510       -1.03299
