29
Benzoisoxazole_H9_Int1_Sub10.log	Energy: -905801.9685338
C          0.02179       -1.52534        0.17329
C          0.37312       -1.16525       -1.15108
C          1.01115       -1.48615        1.21364
C          1.71508       -0.76790       -1.39189
H         -0.31583       -1.37008       -1.97301
C          2.30760       -1.08877        0.98706
Cl         0.51819       -1.94853        2.79501
C          2.61944       -0.72522       -0.33571
C          2.50681       -0.33767       -2.49818
H          3.04985       -1.05128        1.78362
O          3.80639       -0.30926       -0.77802
H          2.22505       -0.21115       -3.54324
N          3.72748       -0.07038       -2.12952
O         -2.29797       -0.07765       -1.18146
C         -3.16928       -0.85363       -0.59115
O         -2.99422       -1.41910        0.47289
C         -4.45348       -0.97359       -1.37769
H         -4.24361       -1.15380       -2.44087
H         -5.06784       -1.78023       -0.96077
H         -5.00215       -0.02215       -1.30986
H         -0.94829       -1.98255        0.39517
Pd        -0.70299        0.52600       -0.19787
O         -1.14565        2.53786        0.30600
C          0.01440        2.63911        0.79151
O          0.76448        1.60718        0.73415
C          0.50893        3.89739        1.41294
H         -0.25316        4.68248        1.34827
H          0.76408        3.70389        2.46505
H          1.43016        4.21611        0.90428
