33
Benzothiophene_H9_Int1_Sub17.log	Energy: -1021463.3981167
C         -0.53078       -1.28918        0.79241
C          0.82101       -0.88628        0.64809
C         -1.24338       -0.78736        1.90939
C          1.43883       -0.01471        1.56223
S          1.88390       -1.34929       -0.63056
C         -0.60591        0.07804        2.85080
H         -2.22301       -1.20887        2.14428
C          0.69928        0.46220        2.67712
C          2.79083        0.26040        1.19498
C          3.15365       -0.38770        0.05045
H         -1.17550        0.42846        3.71322
H          1.18116        1.13335        3.39138
H          3.46552        0.91028        1.75178
C          4.49293       -0.32357       -0.61431
O         -3.40956       -0.73496       -0.00064
C         -3.40534       -1.73045       -0.84596
O         -2.41997       -2.14785       -1.42955
C         -4.78061       -2.32360       -1.04340
H         -5.28738       -2.46285       -0.07875
H         -5.38825       -1.62131       -1.63373
H         -4.69919       -3.27569       -1.58093
H         -0.95573       -2.05999        0.14236
Pd        -1.80774        0.40526        0.12329
O         -2.27433        2.07138       -1.09781
C         -1.17314        2.59070       -0.76209
O         -0.43803        1.93585        0.04661
C         -0.75466        3.92879       -1.26349
H         -1.08688        4.06030       -2.30134
H         -1.24176        4.70294       -0.65073
H          0.33298        4.04443       -1.18151
F          5.32153        0.46075        0.07483
F          4.40375        0.16346       -1.85393
F          5.05367       -1.53128       -0.70810
