42
Benzofuran_H9_deriv1_Int1_Sub12.log	Energy: -994353.2033710
C          0.58138       -0.38110        1.61741
C         -0.45897        0.49436        1.94716
C          0.24046       -1.37389        0.67455
C         -1.74409        0.46595        1.38224
O         -0.33473        1.48769        2.84519
C         -1.07238       -1.43212        0.10966
H          0.90635       -2.22212        0.50956
C         -2.08850       -0.52056        0.38924
C         -2.42265        1.56256        2.03462
C         -1.52370        2.11827        2.88869
Cl        -1.22891       -2.76456       -1.00548
C         -3.44046       -0.54768       -0.34828
H         -3.43904        1.91117        1.91273
H         -1.59714        2.95216        3.58243
O          2.93575       -0.98893       -0.28570
C          3.77745       -0.83441        0.69991
O          3.59093       -0.14013        1.68376
C          5.05229       -1.61888        0.48927
H          4.82805       -2.64418        0.16465
H          5.63507       -1.14248       -0.31336
H          5.64038       -1.62422        1.41457
H          1.53680       -0.37734        2.15134
Pd         1.35476        0.17406       -0.43134
O          1.88118        1.54434       -1.96500
C          0.72171        2.03525       -1.88624
O         -0.08008        1.52159       -1.03883
C          0.30511        3.19405       -2.72464
H         -0.78570        3.21124       -2.84060
H          0.61855        4.12139       -2.22062
H          0.80446        3.15158       -3.70091
C         -4.39438        0.57442        0.06986
H         -5.30976        0.48699       -0.53359
H         -4.69477        0.49601        1.12381
H         -3.97171        1.57078       -0.11882
C         -3.18619       -0.34710       -1.85383
H         -2.58401       -1.14844       -2.29609
H         -4.14904       -0.31327       -2.38702
H         -2.66032        0.60486       -2.02086
C         -4.18005       -1.86597       -0.06335
H         -5.13803       -1.87208       -0.60642
H         -3.61318       -2.75148       -0.37054
H         -4.40106       -1.95544        1.01142
