29
Benzooxazole_H10_Int1_Sub26.log	Energy: -905824.0587434
C         -0.45177       -1.66394        0.51742
C         -0.39077       -1.62855       -0.90904
C          0.69410       -1.39659        1.30465
C          0.81478       -1.32903       -1.58865
H         -1.25082       -1.98767       -1.47779
C          1.82859       -1.07533        0.60546
H          0.65996       -1.43239        2.39328
C          1.91639       -1.03367       -0.81018
H          0.87133       -1.32757       -2.67738
O          3.05551       -0.73712        1.08722
N          3.20839       -0.66877       -1.15679
C          3.79379       -0.51514       -0.02754
Cl         5.39776       -0.06890        0.23860
O         -3.01877       -0.43338       -0.61895
C         -3.72869       -0.88509        0.38045
O         -3.31153       -1.04342        1.51419
C         -5.15447       -1.18856       -0.01591
H         -5.18625       -1.74306       -0.96376
H         -5.64747       -1.75566        0.78251
H         -5.68905       -0.23980       -0.17406
H         -1.36163       -2.00717        1.01613
Pd        -1.24855        0.32426       -0.21505
O         -1.58231        2.41650       -0.09911
C         -0.34175        2.57621        0.06704
O          0.38741        1.53032        0.07777
C          0.25494        3.93028        0.23372
H          1.32363        3.85516        0.46656
H          0.11574        4.49997       -0.69695
H         -0.27600        4.46810        1.03164
