27
Benzene_H10_Int1_Sub140.log	Energy: -2127225.4951634
C          0.29936       -1.49122        1.23574
C         -0.76568       -1.06287        2.07037
C          0.07890       -1.62049       -0.15870
C         -1.99077       -0.74525        1.52753
H         -0.60880       -0.98767        3.14825
C         -1.19008       -1.31246       -0.70228
H          0.84276       -2.05395       -0.80996
C         -2.19437       -0.87350        0.13576
H         -2.80932       -0.39774        2.15950
H         -1.36287       -1.42129       -1.77355
Br        -3.88017       -0.43466       -0.57166
O          2.89459       -0.55887        0.40632
C          3.37318       -1.12472       -0.66965
O          2.74444       -1.30917       -1.69672
C          4.82067       -1.52803       -0.51348
H          5.11774       -2.17081       -1.35053
H          5.44429       -0.62144       -0.50853
H          4.98109       -2.03962        0.44546
H          1.21853       -1.87997        1.67843
Pd         1.14360        0.33113        0.27226
O          1.62575        2.35743       -0.10101
C          0.39321        2.62923       -0.05729
O         -0.40925        1.66925        0.18325
C         -0.11556        4.00505       -0.31075
H         -0.24710        4.13424       -1.39625
H         -1.08773        4.14807        0.17710
H          0.61427        4.74749        0.03606
