37
Benzothiophene_H13_deriv1_Int1_Sub24.log	Energy: -1093278.9434302
C          0.34455        0.66375        1.14332
C         -1.02559        0.19410        1.06611
C          1.13626       -0.18886        1.93245
C         -1.22214       -0.97380        1.82755
C         -2.09195        0.73555        0.31615
H          2.11021        0.06606        2.35334
S          0.23050       -1.49720        2.64088
C         -2.46398       -1.61013        1.87464
C         -3.33844        0.10848        0.37939
C         -1.79609        1.95688       -0.52314
C         -3.50652       -1.05391        1.15874
H         -2.61242       -2.51540        2.46617
O         -4.42723        0.59434       -0.26303
H         -4.50338       -1.49845        1.18571
O          3.25996        0.45066        0.15015
C          3.31554        1.75123        0.03227
O          2.35790        2.49716       -0.05479
C          4.74033        2.25591        0.00264
H          5.34022        1.77537        0.78746
H          5.19165        1.98704       -0.96428
H          4.74869        3.34605        0.11890
H          0.69641        1.64963        0.81643
Pd         1.59734       -0.56044       -0.15173
O          1.97701       -1.59733       -1.97588
C          0.85901       -2.16613       -1.84388
O          0.16225       -1.87220       -0.81746
C          0.37082       -3.16889       -2.83161
H          0.87630       -4.12770       -2.63936
H         -0.71216       -3.31013       -2.73221
H          0.63393       -2.84903       -3.84838
F         -2.83552        2.40266       -1.21957
F         -0.82189        1.68650       -1.40306
F         -1.36744        2.96477        0.24297
C         -4.67168        0.05771       -1.54378
H         -3.84682        0.28609       -2.23944
H         -4.81279       -1.03701       -1.50202
H         -5.59180        0.52496       -1.91695
