33
Benzo13dioxol_H9_Int1_Sub17.log	Energy: -842112.2121846
C          0.36932       -0.59219        1.69235
C         -0.49122        0.33540        2.34824
C         -0.07983       -1.34008        0.57444
C         -1.73931        0.49247        1.81835
H         -0.15309        0.90677        3.21202
C         -1.41317       -1.19111        0.08138
H          0.52001       -2.17464        0.20759
C         -2.19499       -0.25082        0.69947
O         -2.72689        1.31903        2.21089
C         -1.88580       -1.95230       -1.12244
O         -3.44668        0.12803        0.40580
C         -3.75764        1.22470        1.24900
H         -4.72057        1.04211        1.74934
H         -3.79337        2.14993        0.64690
O          2.65392       -0.87602       -0.28664
C          3.54680       -0.83255        0.66545
O          3.42075       -0.22333        1.71320
C          4.78648       -1.62713        0.32655
H          4.51709       -2.61970       -0.05992
H          5.33791       -1.10574       -0.47015
H          5.42300       -1.71655        1.21472
H          1.33641       -0.81780        2.14819
Pd         1.11671        0.34879       -0.18815
O          1.62152        1.97587       -1.47568
C          0.47394        2.45298       -1.27368
O         -0.30287        1.81311       -0.48755
C          0.01047        3.69903       -1.94633
H          0.86943        4.31432       -2.24038
H         -0.54886        3.42023       -2.85282
H         -0.66524        4.25784       -1.28607
F         -1.09680       -2.99889       -1.37046
F         -1.88525       -1.18439       -2.21799
F         -3.12899       -2.40614       -0.95948
