45
Benzoisoxazole_H9_Int1_Sub19.log	Energy: -764635.7988748
C          0.79227       -0.53865       -1.56128
C          1.14457       -1.67020       -0.78377
C         -0.55603       -0.06133       -1.60517
C          0.08681       -2.31239       -0.08337
H          2.12652       -2.13511       -0.89060
C         -1.58007       -0.64620       -0.89005
H         -0.75831        0.81086       -2.22759
C         -1.19763       -1.78708       -0.13989
C         -0.07287       -3.44219        0.77394
C         -2.99451       -0.14427       -0.82842
O         -2.01696       -2.53148        0.60963
H          0.66959       -4.16515        1.11099
N         -1.30740       -3.56267        1.17367
O          3.50580       -0.06604       -0.38988
C          3.86358        0.76258       -1.33539
O          3.10875        1.52714       -1.90894
C          5.33979        0.68152       -1.64604
H          5.65984       -0.36490       -1.74441
H          5.55575        1.24072       -2.56402
H          5.90493        1.11879       -0.80926
H          1.51360       -0.09510       -2.25082
Pd         1.69118        0.14934        0.34480
O          1.92418        1.41432        2.04255
C          0.69354        1.27287        2.27801
O          0.02576        0.52481        1.48964
C          0.02137        1.97455        3.40665
H          0.73348        2.14937        4.22267
H         -0.33833        2.95092        3.04642
H         -0.84291        1.39446        3.75398
H         -3.65050       -1.03328       -0.88618
C         -3.37552        0.79758       -1.96789
H         -3.18959        0.31226       -2.93994
H         -2.72965        1.69293       -1.93175
C         -4.83053        1.23947       -1.85638
H         -5.07872        1.92735       -2.68029
H         -5.48750        0.35949       -1.97837
C         -5.11102        1.89591       -0.50912
H         -6.17392        2.17580       -0.43211
H         -4.53572        2.83698       -0.43945
C         -4.71580        0.98111        0.64445
H         -5.37529        0.09459        0.64928
H         -4.87392        1.48764        1.61027
C         -3.26711        0.52253        0.53287
H         -2.58081        1.38014        0.63958
H         -3.01622       -0.17437        1.34624
