32
Benzoisoxazole_H11_deriv1_Int1_Sub9.log	Energy: -1117189.9263978
C          0.54809       -0.40269        1.58960
C         -0.50193        0.48379        1.90842
C          0.23473       -1.38752        0.62392
C         -1.75703        0.44098        1.31149
O         -0.44573        1.48736        2.78433
C         -1.06508       -1.45099        0.01981
H          0.91215       -2.22808        0.46208
C         -2.05805       -0.54414        0.33346
C         -2.42609        1.54211        1.93685
N         -1.64721        2.13787        2.79420
Cl        -1.30226       -2.70515       -1.13600
C         -3.40561       -0.58110       -0.35179
H         -3.43863        1.90951        1.78866
O          2.92995       -0.97128       -0.32638
C          3.74016       -0.93227        0.69877
O          3.51285       -0.36319        1.75160
C          5.02899       -1.67339        0.43550
H          5.64584       -1.07550       -0.25227
H          5.57042       -1.81761        1.37781
H          4.83281       -2.63655       -0.05451
H          1.49460       -0.41962        2.14318
Pd         1.35476        0.20127       -0.41039
O          1.90391        1.64098       -1.85448
C          0.74799        2.14007       -1.75880
O         -0.06112        1.57951       -0.94544
C          0.34063        3.34564       -2.52698
H          0.96572        3.45586       -3.42132
H         -0.72240        3.28154       -2.79295
H          0.47969        4.23088       -1.88714
F         -3.28654       -0.39941       -1.66452
F         -4.20504        0.38356        0.11348
F         -4.02731       -1.74042       -0.15246
