45
Benzoisoxazole_H9_Int1_Sub3.log	Energy: -764635.5020377
C          0.02635       -0.02697        1.68049
C          0.71854        0.66731        0.64653
C         -1.03546        0.57931        2.43138
C          0.25930        1.99426        0.39161
C          2.02368        0.13952        0.10736
C         -1.46118        1.85690        2.17198
H         -1.50333       -0.01422        3.21883
C         -0.78971        2.53312        1.13542
C          0.58578        3.07071       -0.49234
H         -2.27387        2.33295        2.72064
O         -1.04331        3.77540        0.72535
H          1.34868        3.12925       -1.26666
N         -0.17975        4.10418       -0.29044
O          0.23089       -2.30616       -0.09016
C         -0.10249       -3.20493        0.79872
O         -0.95439       -3.03812        1.65295
C          0.68347       -4.48652        0.65724
H          1.75876       -4.27386        0.57614
H          0.48396       -5.14073        1.51407
H          0.38093       -4.99361       -0.27109
H          0.44797       -0.95660        2.06577
Pd        -0.95436       -0.72724       -0.13198
O         -2.37415       -1.18649       -1.64537
C         -2.89751       -0.05414       -1.45716
O         -2.36373        0.69958       -0.57830
C         -4.11158        0.38570       -2.19852
H         -4.16489       -0.11768       -3.17175
H         -5.00017        0.10453       -1.61232
H         -4.10905        1.47666       -2.31731
H          2.09617       -0.90607        0.44674
C          3.20456        0.91407        0.71167
H          3.13657        0.89835        1.81152
H          3.13979        1.97513        0.41188
C          4.53516        0.33220        0.24787
H          5.36775        0.92041        0.66601
H          4.64171       -0.68983        0.65364
C          4.62579        0.28004       -1.27312
H          5.57733       -0.18013       -1.58414
H          4.63607        1.31136       -1.67105
C          3.44643       -0.47722       -1.87335
H          3.49242       -1.53642       -1.56370
H          3.50422       -0.47402       -2.97340
C          2.11383        0.10734       -1.42096
H          2.00690        1.12641       -1.82980
H          1.27866       -0.48602       -1.82439
