27
Benzene_H10_Int1_Sub157.log	Energy: -574721.9183344
C         -0.21980       -1.68627        0.93318
C         -1.44044       -1.52811        1.64345
C         -0.24116       -1.72792       -0.48531
C         -2.62600       -1.38108        0.96026
H         -1.43095       -1.52566        2.73514
C         -1.46566       -1.59830       -1.17512
H          0.66905       -1.95223       -1.04823
C         -2.61967       -1.41680       -0.44698
H         -3.57669       -1.23714        1.47629
H         -1.50563       -1.63277       -2.26440
F         -3.77769       -1.28040       -1.07614
O          2.24520       -0.23976        0.60699
C          2.96527       -0.63730       -0.40766
O          2.53290       -0.85910       -1.52497
C          4.42615       -0.78864       -0.05285
H          4.95149       -1.30824       -0.86287
H          4.86441        0.21110        0.08604
H          4.54222       -1.33032        0.89592
H          0.69105       -1.95737        1.47038
Pd         0.39478        0.33419        0.25715
O          0.53722        2.43864        0.05872
C         -0.71781        2.48291       -0.06818
O         -1.35323        1.38018        0.00184
C         -1.43448        3.76255       -0.32508
H         -1.43631        3.95064       -1.40993
H         -2.47412        3.69393        0.01839
H         -0.91057        4.59314        0.16463
