28
Benzene_H10_Int1_Sub125.log	Energy: -559659.8477687
C          0.42613       -1.73526       -0.79314
C          1.76501       -1.58795       -1.19681
C          0.07852       -1.71559        0.58369
C          2.75155       -1.39447       -0.23997
H          2.04190       -1.60794       -2.25144
C          1.11533       -1.55955        1.54131
H         -0.92166       -1.99059        0.92356
C          2.41819       -1.39287        1.13712
O          4.01456       -1.22352       -0.65401
H          0.86468       -1.56932        2.60376
H          3.21089       -1.24812        1.87737
O         -2.15095       -0.32628       -0.75914
C         -3.02935       -0.61396        0.16354
O         -2.78709       -0.68753        1.35500
C         -4.40992       -0.84495       -0.40669
H         -5.06519       -1.26197        0.36718
H         -4.81818        0.11571       -0.75482
H         -4.36336       -1.51380       -1.27720
H         -0.33787       -1.98382       -1.53300
Pd        -0.38756        0.31085       -0.15768
O         -0.51902        2.42793       -0.28269
C          0.69112        2.49467        0.06635
O          1.30655        1.39936        0.27852
C          1.37639        3.80378        0.26197
H          1.22332        4.12759        1.30312
H          2.45442        3.70022        0.08572
H          0.94025        4.56152       -0.40092
H          4.58859       -1.07115        0.10464
