42
Benzothiophene_H9_Int1_Sub20.log	Energy: -908673.4182671
C         -0.53244       -1.29372        0.79022
C          0.81572       -0.88688        0.66047
C         -1.26351       -0.79682        1.90017
C          1.42438       -0.01661        1.58169
S          1.90523       -1.33133       -0.60269
C         -0.63661        0.06593        2.84994
H         -2.24083       -1.22777        2.12709
C          0.67063        0.45307        2.68914
C          2.78047        0.26431        1.22932
C          3.18699       -0.36546        0.08453
H         -1.21459        0.41273        3.70842
H          1.14215        1.12381        3.41109
H          3.42463        0.91969        1.81448
C          4.53039       -0.31412       -0.60829
O         -3.42708       -0.75198       -0.00569
C         -3.41852       -1.73837       -0.86006
O         -2.43579       -2.14052       -1.45843
C         -4.78969       -2.34651       -1.04884
H         -5.27629       -2.51694       -0.07866
H         -5.41876       -1.63912       -1.60988
H         -4.70486       -3.28444       -1.61031
H         -0.95018       -2.05977        0.13053
Pd        -1.83417        0.40205        0.12761
O         -2.29763        2.06617       -1.10953
C         -1.20494        2.59169       -0.75819
O         -0.47519        1.94643        0.06119
C         -0.78911        3.93343       -1.25645
H         -1.10450        4.05974       -2.30023
H         -1.29299        4.70515       -0.65436
H          0.29595        4.05863       -1.15585
C          5.48969        0.57892        0.17905
H          6.46600        0.61352       -0.32722
H          5.11207        1.60992        0.25180
H          5.65219        0.19587        1.19776
C          5.11467       -1.73153       -0.69720
H          4.45863       -2.40197       -1.27323
H          6.09613       -1.70786       -1.19590
H          5.24561       -2.16703        0.30482
C          4.34940        0.25881       -2.02193
H          5.32063        0.31311       -2.53805
H          3.67794       -0.36879       -2.62758
H          3.91944        1.27097       -1.98317
