33
Benzofuran_H9_deriv1_Int1_Sub14.log	Energy: -920413.8615343
C         -0.04157       -0.85439        1.34041
C         -1.21859       -0.19715        1.73304
C         -0.12379       -1.56572        0.11566
C         -2.39638       -0.20687        0.98580
O         -1.37377        0.54197        2.84911
C         -1.34183       -1.59042       -0.63751
H          0.66597       -2.26704       -0.15916
C         -2.48387       -0.91741       -0.24584
C         -3.32115        0.60008        1.72691
C         -2.63947        1.01347        2.83160
Cl        -1.30333       -2.49896       -2.11408
C         -3.74607       -0.87833       -1.04108
H         -4.34985        0.84508        1.47528
H         -2.92338        1.63324        3.67867
O          2.60328       -0.69284       -0.25717
C          3.28294       -0.77697        0.85384
O          2.88267       -0.43660        1.95338
C          4.66519       -1.34832        0.63462
H          4.61836       -2.24356       -0.00048
H          5.27860       -0.60422        0.10473
H          5.12660       -1.58189        1.60136
H          0.83443       -0.92477        1.99385
Pd         0.91795        0.32253       -0.32385
O          1.45776        2.13689       -1.29076
C          0.24296        2.47575       -1.26339
O         -0.58671        1.65834       -0.74513
C         -0.21243        3.79513       -1.78412
H         -1.27575        3.75522       -2.05080
H         -0.07572        4.54966       -0.99407
H          0.39929        4.09088       -2.64595
H         -3.85422        0.10719       -1.52355
H         -4.62213       -1.02566       -0.39228
H         -3.75296       -1.64343       -1.82615
