29
Benzene_H10_Int1_Sub119.log	Energy: -547201.2898753
C          0.45518       -1.73220       -0.83507
C          1.80166       -1.59060       -1.19244
C          0.05563       -1.70954        0.52842
C          2.77684       -1.40721       -0.20655
H          2.08750       -1.60256       -2.24645
C          1.06988       -1.57724        1.51947
H         -0.94731       -2.01112        0.83493
C          2.38352       -1.42222        1.16399
N          4.09029       -1.25267       -0.52474
H          0.78395       -1.59323        2.57313
H          3.14983       -1.29588        1.93297
O         -2.16247       -0.32127       -0.75710
C         -3.04594       -0.61594        0.15725
O         -2.81549       -0.69283        1.35087
C         -4.42150       -0.85216       -0.42528
H         -5.08327       -1.26840        0.34352
H         -4.82913        0.10589       -0.78124
H         -4.36477       -1.52430       -1.29275
H         -0.28837       -1.95832       -1.60266
Pd        -0.40026        0.31495       -0.14421
O         -0.50681        2.44217       -0.30321
C          0.69764        2.49800        0.06273
O          1.30285        1.40142        0.29434
C          1.39177        3.80426        0.25883
H          1.21994        4.14051        1.29308
H          2.47254        3.69031        0.10724
H          0.97659        4.55941       -0.42035
H          4.72727       -0.91202        0.18041
H          4.34255       -1.05588       -1.48231
