43
Benzene_H10_Int1_Sub65.log	Energy: -659629.2831693
C         -0.04844        1.22186       -1.51151
C         -1.09838        2.10979       -1.86613
C          0.59284        1.32652       -0.24448
C         -1.53249        3.06061       -0.96783
H         -1.55067        2.02758       -2.85668
C          0.11572        2.31834        0.65156
C          1.89792        0.61477        0.01652
C         -0.91877        3.15919        0.29644
H         -2.35030        3.73468       -1.23020
H          0.59052        2.42390        1.62836
H         -1.26753        3.91360        1.00527
O          0.01821       -1.58679       -1.34908
C          0.53118       -2.55106       -0.62855
O          0.46734       -2.61015        0.58493
C          1.24545       -3.58582       -1.46558
H          1.61037       -4.39402       -0.82091
H          0.56663       -3.98699       -2.23149
H          2.09104       -3.11841       -1.99218
H          0.39698        0.58067       -2.27597
Pd        -1.10159       -0.32386       -0.32647
O         -2.64469       -1.50944        0.51158
C         -3.14381       -0.46257        1.00506
O         -2.55819        0.64154        0.75347
C         -4.34821       -0.50636        1.88055
H         -4.02081       -0.68973        2.91561
H         -4.88068        0.45232        1.84711
H         -5.00399       -1.33273        1.57850
H          1.94218       -0.23550       -0.68310
C          2.04099        0.05863        1.43438
H          1.20529       -0.62475        1.64664
H          1.99763        0.88605        2.16534
C          3.36567       -0.67673        1.59395
H          3.46165       -1.05838        2.62272
H          3.35385       -1.56600        0.93931
C          4.55210        0.21331        1.24073
H          5.49589       -0.35041        1.31866
H          4.62038        1.03478        1.97737
C          4.40706        0.80900       -0.15556
H          4.46576       -0.00175       -0.90413
H          5.24289        1.49341       -0.37404
C          3.07839        1.53837       -0.32255
H          3.04833        2.42002        0.34326
H          2.97309        1.92071       -1.35115
