35
Benzo13dioxol_H8_deriv1_Int1_Sub15.log	Energy: -978396.7297860
C          0.29455       -0.93973        1.22887
C         -0.81414       -0.24777        1.75400
C          0.02593       -1.68191        0.03682
C         -2.04306       -0.22043        1.14028
O         -0.85604        0.49381        2.88316
C         -1.23362       -1.66406       -0.56342
H          0.79227       -2.34577       -0.36547
C         -2.32529       -0.91395       -0.05553
O         -2.89865        0.54710        1.87961
C         -2.06706        1.22242        2.80578
Cl        -1.47181       -2.53820       -2.04679
N         -3.51895       -0.89165       -0.68701
H         -2.55163        1.24501        3.79195
H         -1.85641        2.24680        2.44000
O          2.80495       -0.69767       -0.37240
C          3.55745       -0.80438        0.68747
O          3.24168       -0.46921        1.81580
C          4.91111       -1.39942        0.36829
H          4.80259       -2.29220       -0.26291
H          5.49819       -0.66552       -0.20397
H          5.43710       -1.64432        1.29862
H          1.20243       -1.08199        1.82353
Pd         1.13463        0.34665       -0.32636
O          1.55961        2.08290       -1.50460
C          0.36417        2.44205       -1.34444
O         -0.40133        1.68408       -0.66019
C         -0.14691        3.72839       -1.90068
H         -1.22850        3.66713       -2.07486
H          0.04353        4.52832       -1.16843
H          0.38684        3.97846       -2.82616
H         -3.52428       -1.37529       -1.57703
C         -4.59804        0.02371       -0.41504
H         -5.46114       -0.26721       -1.02761
H         -4.33582        1.06892       -0.65590
H         -4.89714       -0.01489        0.64024
