41
Benzoisoxazole_H9_deriv1_Int1_Sub2.log	Energy: -1004401.1015547
C         -0.40692       -0.91764        1.20852
C         -0.28431       -1.73810        0.06309
C          0.70992       -0.14318        1.66528
C          0.97410       -1.75825       -0.58331
Cl        -1.46539       -2.92485       -0.34441
C          1.93901       -0.12124        1.03849
H          0.53108        0.46759        2.54949
C          2.01547       -0.96846       -0.10015
C          1.54552       -2.40107       -1.71934
C          3.10651        0.75019        1.47541
O          3.08110       -1.14237       -0.88925
H          1.08942       -3.11402       -2.40501
N          2.78200       -2.03492       -1.89113
O         -2.99872       -0.15412        0.22312
C         -3.37005        0.37032        1.35962
O         -2.62809        0.98545        2.10681
C         -4.83115        0.13689        1.65830
H         -5.09572       -0.91601        1.48903
H         -5.04922        0.43030        2.69193
H         -5.43888        0.74151        0.96864
H         -1.26461       -1.02744        1.87117
Pd        -1.19795        0.35655       -0.37737
O         -1.55221        1.94950       -1.73114
C         -0.31166        2.01061       -1.95008
O          0.43243        1.17437       -1.33906
C          0.27853        3.03620       -2.85353
H         -0.43525        3.30088       -3.64363
H          0.49034        3.94156       -2.26363
H          1.22148        2.67048       -3.27891
C          2.75435        1.56188        2.72099
H          3.61700        2.18050        3.00935
H          1.90495        2.23866        2.54239
H          2.50928        0.91527        3.57752
C          4.31958       -0.13929        1.78812
H          4.63358       -0.72363        0.91247
H          5.16977        0.48687        2.10002
H          4.09330       -0.83777        2.60841
C          3.44411        1.72117        0.33176
H          4.26600        2.38624        0.63935
H          3.75750        1.18592       -0.57489
H          2.56918        2.33609        0.07549
