27
Benzene_H10_Int1_Sub15.log	Energy: -800798.8642397
C          0.68392       -1.58107        0.07130
C          2.04890       -1.30432       -0.20696
C          0.17383       -1.27457        1.35821
C          2.86039       -0.72248        0.74392
Cl         2.67002       -1.70305       -1.76575
C          1.02117       -0.69053        2.32892
H         -0.83528       -1.58636        1.63952
C          2.33689       -0.41866        2.01632
H          3.90124       -0.50167        0.50345
H          0.62159       -0.46379        3.31855
H          2.99248        0.04131        2.75887
O         -1.93371       -0.75769       -0.76982
C         -2.91433       -0.99113        0.06163
O         -2.88588       -0.74600        1.25460
C         -4.11580       -1.60097       -0.62116
H         -4.82786       -1.95752        0.13242
H         -4.59710       -0.83467       -1.24716
H         -3.81054       -2.42059       -1.28607
H          0.10309       -2.18369       -0.62936
Pd        -0.43120        0.33266       -0.11657
O         -0.92170        2.29364       -0.72887
C          0.18867        2.68579       -0.27211
O          0.95036        1.80761        0.24916
C          0.58489        4.12049       -0.30595
H          0.17261        4.61877        0.58512
H          1.67762        4.21538       -0.28553
H          0.16325        4.60670       -1.19478
