34
Benzoisoxazole_H10_Int1_Sub31.log	Energy: -676845.8505999
C          0.39028       -1.43642        1.09018
C         -0.57618       -0.97615        2.03051
C          0.04854       -1.63404       -0.27386
C         -1.86986       -0.70088        1.64865
H         -0.26705       -0.84154        3.06792
C         -1.30201       -1.37300       -0.61518
H          0.70991       -2.16354       -0.96186
C         -2.23822       -0.89668        0.29738
H         -2.59061       -0.34035        2.38230
O         -1.84692       -1.51612       -1.81550
C         -3.41915       -0.75527       -0.52235
N         -3.17023       -1.11947       -1.76176
N         -4.65989       -0.33633       -0.16131
O          2.69183       -0.64987       -0.72356
C          3.58523       -0.91787        0.19165
O          3.41297       -0.78740        1.39042
C          4.88557       -1.40884       -0.40032
H          5.52851       -1.80304        0.39547
H          4.69953       -2.17526       -1.16521
H          5.39105       -0.56737       -0.89747
H          1.37230       -1.74599        1.45632
Pd         1.07032        0.31063       -0.15334
O          1.52784        2.34792       -0.49836
C          0.35031        2.64440       -0.15141
O         -0.42107        1.69003        0.18901
C         -0.12287        4.05685       -0.14309
H         -0.05886        4.46380       -1.16274
H         -1.15521        4.11672        0.22087
H          0.54166        4.65859        0.49323
H         -5.29826       -0.22302       -0.93770
C         -4.92469        0.40321        1.04243
H         -5.96029        0.76545        1.01348
H         -4.26261        1.27942        1.16678
H         -4.83296       -0.23038        1.94019
