35
Benzofuran_H9_deriv1_Int1_Sub15.log	Energy: -955125.9802153
C          0.27642       -1.31608        0.78439
C         -0.83612       -0.90592        1.55584
C         -0.00297       -1.50850       -0.59643
C         -2.10484       -0.62020        1.05157
O         -0.80485       -0.71973        2.88456
C         -1.27678       -1.24586       -1.12466
H          0.74364       -1.97941       -1.23807
C         -2.35146       -0.76140       -0.35397
C         -2.88085       -0.22544        2.19898
C         -2.03674       -0.31062        3.26104
Cl        -1.51302       -1.44455       -2.83860
N         -3.52702       -0.46305       -0.94402
H         -3.92095        0.07691        2.25066
H         -2.17132       -0.12064        4.32256
O          2.78352       -0.51435       -0.61188
C          3.53616       -1.01835        0.32596
O          3.22314       -1.13842        1.49773
C          4.88830       -1.44988       -0.19811
H          4.77674       -2.03585       -1.12086
H          5.47609       -0.55450       -0.45028
H          5.41532       -2.03055        0.56822
H          1.18292       -1.69477        1.26681
Pd         1.11480        0.44469       -0.17612
O          1.55030        2.50249       -0.59608
C          0.35052        2.77197       -0.32536
O         -0.41844        1.81156        0.00962
C         -0.16152        4.17295       -0.35602
H         -1.24062        4.18143       -0.55440
H          0.01474        4.63227        0.62896
H          0.38176        4.75788       -1.10878
H         -3.54089       -0.59687       -1.94772
C         -4.67618        0.13158       -0.32426
H         -5.42040        0.34293       -1.10242
H         -4.43041        1.08438        0.17304
H         -5.14984       -0.53816        0.41285
