42
Benzofuran_H9_deriv1_Int1_Sub28.log	Energy: -994366.9738781
C          0.18467       -0.00102       -1.39273
C         -1.11717        0.27446       -0.95732
C          1.11759        1.06767       -1.28943
C         -1.52040        1.50993       -0.44172
O         -2.14728       -0.59523       -0.93969
C          0.69694        2.34045       -0.78540
H          2.08205        1.00025       -1.79573
C         -0.58910        2.57113       -0.35641
C         -2.89956        1.34409       -0.09587
C         -3.22140        0.05372       -0.41591
Cl         1.87651        3.60262       -0.71739
H         -0.87160        3.54642        0.04139
H         -3.56536        2.08283        0.34082
C         -4.47912       -0.75211       -0.29555
O          3.05942       -0.94239       -0.60288
C          2.91402       -1.99647       -1.35793
O          1.84913       -2.51025       -1.65456
C          4.23933       -2.54367       -1.83656
H          4.88218       -1.73384       -2.20785
H          4.75994       -3.00986       -0.98658
H          4.06970       -3.29407       -2.61773
H          0.44899       -0.94430       -1.88241
Pd         1.53112       -0.24385        0.42384
O          1.87135       -0.96332        2.39418
C          0.85523       -0.31715        2.77051
O          0.22976        0.36291        1.89268
C          0.37405       -0.36691        4.17957
H         -0.21872        0.52621        4.41278
H         -0.26519       -1.25517        4.30047
H          1.22564       -0.46486        4.86481
C         -5.58556        0.11647        0.30002
H         -6.51183       -0.46982        0.39228
H         -5.31567        0.47944        1.30340
H         -5.80040        0.98750       -0.33757
C         -4.88980       -1.24522       -1.69076
H         -4.09460       -1.85503       -2.14296
H         -5.79920       -1.86150       -1.62015
H         -5.09858       -0.39922       -2.36304
C         -4.20385       -1.95484        0.61977
H         -5.10924       -2.57430        0.71166
H         -3.39606       -2.58141        0.21518
H         -3.90842       -1.62330        1.62680
