35
Benzo13dioxol_H9_Int1_Sub31.log	Energy: -690085.0798648
C          0.75672       -1.77545        0.46279
C         -0.36875       -1.74230        1.33295
C          0.58935       -1.71860       -0.94871
C         -1.59158       -1.59495        0.74037
H         -0.25041       -1.77941        2.41547
C         -0.70642       -1.63839       -1.53443
H          1.45474       -1.90600       -1.58747
C         -1.76335       -1.54590       -0.66894
O         -2.79367       -1.43314        1.32428
H         -0.84443       -1.60685       -2.61496
O         -3.06372       -1.36537       -0.93346
C         -3.66954       -0.93523        0.32772
H         -4.64675       -1.43618        0.38517
N         -3.78433        0.44695        0.44975
O          2.95470       -0.05997       -0.68822
C          3.77905       -0.33706        0.28812
O          3.44946       -0.54429        1.44125
C          5.21898       -0.36538       -0.17044
H          5.31976       -0.93694       -1.10326
H          5.54675        0.66387       -0.38021
H          5.84851       -0.79515        0.61766
H          1.74120       -1.97548        0.89046
Pd         1.08792        0.32786       -0.22024
O          1.01719        2.46039       -0.08818
C         -0.22037        2.39750        0.12007
O         -0.76490        1.24203        0.13627
C         -1.04803        3.61783        0.34735
H         -0.43013        4.52064        0.28066
H         -1.85411        3.65774       -0.40006
H         -1.51744        3.55723        1.34037
H         -2.85656        0.87972        0.44572
C         -4.72215        1.09237       -0.43811
H         -4.80875        2.15506       -0.17030
H         -5.72140        0.64462       -0.31577
H         -4.45080        1.02316       -1.50847
