34
Benzoisoxazole_H11_deriv1_Int1_Sub15.log	Energy: -965168.3385446
C          0.28748       -1.14839        1.00168
C         -0.83969       -0.61486        1.67859
C          0.01141       -1.58830       -0.32263
C         -2.09618       -0.43776        1.11039
O         -0.85048       -0.18884        2.93906
C         -1.25482       -1.43486       -0.90735
H          0.77076       -2.15144       -0.86840
C         -2.34045       -0.82852       -0.24510
C         -2.83368        0.15104        2.18649
N         -2.09522        0.28770        3.25018
Cl        -1.47450       -1.93948       -2.55727
N         -3.51439       -0.64595       -0.87517
H         -3.87021        0.47601        2.23588
O          2.79658       -0.54578       -0.51113
C          3.53943       -0.97913        0.46993
O          3.20975       -1.03163        1.64178
C          4.90576       -1.42103       -0.00514
H          5.48651       -0.53289       -0.29613
H          5.42533       -1.95057        0.80213
H          4.81868       -2.05870       -0.89558
H          1.19537       -1.43573        1.54512
Pd         1.11353        0.43701       -0.21739
O          1.51779        2.39188       -0.98697
C          0.31888        2.69392       -0.74875
O         -0.43491        1.79285       -0.24941
C         -0.20946        4.06487       -1.00051
H          0.35091        4.54442       -1.81257
H         -1.28143        4.02414       -1.23164
H         -0.07658        4.66380       -0.08620
H         -3.53549       -0.95916       -1.83836
C         -4.67122        0.01431       -0.34093
H         -5.43645        0.07050       -1.12487
H         -4.44333        1.04399       -0.01883
H         -5.10766       -0.53349        0.51103
