32
Benzooxazole_H10_Int1_Sub25.log	Energy: -828894.8134722
C          0.90899       -1.68273       -0.53010
C          0.88046       -1.64788        0.89821
C         -0.24969       -1.41584       -1.29333
C         -0.30966       -1.34850        1.60290
H          1.75313       -2.00587        1.44805
C         -1.37152       -1.09267       -0.57015
H         -0.23755       -1.45009       -2.38245
C         -1.42684       -1.05205        0.84569
H         -0.34473       -1.34808        2.69266
O         -2.60426       -0.75031       -1.02436
N         -2.71056       -0.68085        1.21905
C         -3.31816       -0.52533        0.10239
C         -4.75297       -0.11235       -0.10584
O          3.48490       -0.40575        0.60897
C          4.18799       -0.86434       -0.39245
O          3.75702       -1.04631       -1.51749
C          5.62281       -1.14141       -0.01120
H          5.67633       -1.67310        0.94861
H          6.11055       -1.72057       -0.80416
H          6.14765       -0.18262        0.11620
H          1.81535       -2.01051       -1.04578
Pd         1.70096        0.32288        0.21650
O          2.00843        2.41559        0.07393
C          0.76428        2.56050       -0.07481
O          0.04834        1.50406       -0.06835
C          0.13873        3.90314       -0.21941
H         -0.76209        3.83632       -0.84270
H         -0.15940        4.26062        0.77841
H          0.85938        4.61361       -0.64269
F         -5.35514        0.06605        1.05419
F         -5.40621       -1.04636       -0.79298
F         -4.80875        1.02166       -0.80029
