49
Benzothiophene_H9_deriv1_Int1_Sub11.log	Energy: -981871.7059215
C         -1.09470        1.42622       -0.64245
C         -0.08753        1.85648        0.24768
C         -0.71536        0.49745       -1.63752
C          1.23073        1.36674        0.18007
S         -0.30988        2.99073        1.53199
C          0.62381       -0.00075       -1.73727
H         -1.41422        0.28787       -2.45059
C          1.58878        0.40504       -0.82374
C          2.03618        1.95703        1.21220
C          1.34154        2.83565        1.99118
C          0.90572       -0.99399       -2.83141
C          2.97491       -0.19150       -0.86962
H          3.09001        1.74525        1.37682
H          1.72516        3.41459        2.83070
O         -3.37291       -0.51614       -1.09485
C         -4.26385        0.38223       -0.77426
O         -4.08986        1.28928        0.02063
C         -5.57388        0.17704       -1.50056
H         -5.40085        0.00399       -2.57171
H         -6.06717       -0.72142       -1.10034
H         -6.22185        1.04839       -1.34889
H         -2.07865        1.90173       -0.64569
Pd        -1.72217       -0.63037       -0.02331
O         -2.09582       -2.20673        1.36068
C         -0.91177       -2.08120        1.77678
O         -0.18311       -1.19149        1.22920
C         -0.36008       -2.95961        2.84740
H         -1.15730       -3.25660        3.54039
H          0.04675       -3.87036        2.38120
H          0.45223       -2.44712        3.37780
H          0.02179       -1.12540       -3.47003
H          1.16349       -1.98465       -2.42430
H          1.73975       -0.67694       -3.47588
H          2.98683       -0.90950       -1.70370
C          3.30174       -1.01921        0.38368
H          2.50234       -1.75920        0.54386
H          3.29187       -0.37588        1.27821
C          4.66386       -1.69064        0.25655
H          4.89813       -2.24766        1.17819
H          4.62761       -2.43923       -0.55597
C          5.76200       -0.67723       -0.04836
H          6.73393       -1.18441       -0.15975
H          5.86889        0.01090        0.81034
C          5.43925        0.13134       -1.30045
H          5.43275       -0.54489       -2.17471
H          6.22780        0.87653       -1.49325
C          4.08373        0.82127       -1.19082
H          4.13301        1.60026       -0.41314
H          3.83881        1.34549       -2.12881
