29
Benzoisoxazole_H8_Int1_Sub10.log	Energy: -905800.5023642
C         -0.44170        1.34335        0.46848
C         -1.77143        0.85703        0.37643
C          0.30530        0.93710        1.60239
C         -2.28257        0.00456        1.34527
C         -2.86233        0.96234       -0.53734
C         -0.27353        0.07426        2.59093
H          1.27505        1.38915        1.82166
C         -1.55676       -0.40375        2.48149
O         -3.53419       -0.34082        1.02794
Cl        -2.88416        1.85942       -1.98078
N         -3.89163        0.26165       -0.15192
H          0.33968       -0.20081        3.45107
H         -2.00129       -1.06743        3.22366
O          2.17641        1.08769       -0.71663
C          3.22175        1.29953        0.03968
O          3.37008        0.84102        1.15831
C          4.24967        2.17992       -0.62997
H          5.00333        2.49129        0.10283
H          4.73567        1.60979       -1.43590
H          3.77145        3.05455       -1.09179
H         -0.08268        2.13619       -0.19101
Pd         0.90939       -0.30054       -0.13188
O          1.48106       -2.03655       -1.20661
C          0.48329       -2.63367       -0.71597
O         -0.25674       -1.97392        0.08726
C          0.15110       -4.03859       -1.07699
H          1.06188       -4.58366       -1.35412
H         -0.36780       -4.53212       -0.24563
H         -0.52471       -4.02572       -1.94619
