30
Benzene_H10_Int1_Sub57.log	Energy: -1113768.4915226
C          0.76103       -0.37314       -1.24426
C         -0.05991        0.09764       -2.29437
C          1.54367        0.54350       -0.48837
C         -0.04942        1.46969       -2.62468
H         -0.58877       -0.62091       -2.92469
C          1.52535        1.88417       -0.82121
C          2.36064       -0.03751        0.62906
C          0.74196        2.33958       -1.89809
H         -0.66660        1.83386       -3.44780
H          2.10898        2.58978       -0.22736
H          0.74805        3.40314       -2.14582
O         -1.39004       -2.10613       -0.52509
C         -0.68175       -2.82325        0.30155
O          0.18421       -2.37226        1.03656
C         -1.04373       -4.28721        0.27579
H         -0.26903       -4.86956        0.78839
H         -2.00354       -4.42229        0.79698
H         -1.17825       -4.63901       -0.75598
H          0.93356       -1.44133       -1.11211
Pd        -1.21389       -0.15740       -0.28546
O         -2.78216        0.32244        1.04255
C         -2.43377        1.53471        0.97699
O         -1.45800        1.81922        0.20881
C         -3.10297        2.58824        1.78752
H         -2.58841        2.65999        2.75831
H         -3.02971        3.56040        1.28421
H         -4.14987        2.31632        1.97150
Cl         3.94540       -0.57527       -0.01103
Cl         2.57601        1.09728        1.97644
H          1.85984       -0.92901        1.03111
