35
Benzoisoxazole_H8_deriv1_Int1_Sub6.log	Energy: -666782.2585299
C          0.12120       -1.40351        0.67771
C          0.93455       -1.78108       -0.42883
C          0.69920       -0.60098        1.69350
C          2.25050       -1.33731       -0.49643
C          0.80228       -2.55185       -1.62432
C          2.05829       -0.15670        1.57495
C         -0.07886       -0.30530        2.93856
C          2.83498       -0.53914        0.49103
O          2.82396       -1.79542       -1.61859
H         -0.06471       -3.09041       -2.00500
N          1.91186       -2.55033       -2.30869
C          2.63404        0.74227        2.62403
H          3.87151       -0.21106        0.39724
O         -2.25133       -0.49605       -0.63829
C         -3.09553       -0.81033        0.30154
O         -2.87656       -0.71830        1.49770
C         -4.41258       -1.30907       -0.24595
H         -5.01240       -1.73869        0.56509
H         -4.95517       -0.46396       -0.69549
H         -4.24797       -2.04946       -1.04090
H         -0.83120       -1.89642        0.87677
Pd        -0.59592        0.48514       -0.23020
O         -0.98507        2.34542       -1.15831
C          0.19315        2.70179       -0.88615
O          0.92317        1.87280       -0.24866
C          0.73373        4.02061       -1.31722
H         -0.07778        4.75474       -1.39611
H          1.50787        4.36199       -0.61851
H          1.19233        3.90312       -2.31130
H          3.69602        0.94537        2.43395
H          2.54067        0.30994        3.63203
H          2.10050        1.70638        2.63242
H         -0.02174        0.76109        3.20147
H          0.34291       -0.86964        3.78781
H         -1.13493       -0.57112        2.80523
