41
Benzoisoxazole_H11_deriv1_Int1_Sub4.log	Energy: -1004394.3977205
C          0.23949        0.39936        1.37059
C          0.57611       -0.85503        1.93556
C          1.10660        0.95309        0.37731
C          1.66036       -1.60698        1.51378
O         -0.05604       -1.47989        2.92702
C          2.17851        0.10125       -0.09158
C          1.07346        2.47073        0.09143
C          2.46673       -1.12495        0.46548
C          1.58711       -2.75641        2.35976
N          0.58145       -2.66937        3.18331
Cl         3.14222        0.53109       -1.47392
H          3.29145       -1.71380        0.06335
H          2.23007       -3.63530        2.39552
O         -2.09581        1.26797       -0.09286
C         -3.11175        0.76874        0.56805
O         -3.13724       -0.37395        0.98584
C         -4.23426        1.75511        0.76520
H         -4.58968        2.11513       -0.21097
H         -5.05449        1.27573        1.31203
H         -3.87202        2.63066        1.32414
H         -0.48114        1.03112        1.88638
Pd        -0.78216       -0.15238       -0.48481
O         -1.65145       -1.13386       -2.14674
C         -0.68282       -1.94098       -2.14829
O          0.23312       -1.75542       -1.28017
C         -0.61606       -3.08922       -3.09260
H         -1.18025       -2.86193       -4.00552
H          0.42904       -3.33058       -3.32438
H         -1.07495       -3.96523       -2.60850
C          0.69021        2.76694       -1.36559
H          0.76990        3.84955       -1.54912
H          1.34091        2.25275       -2.08305
H         -0.35123        2.46755       -1.55460
C          0.07164        3.19512        0.99831
H          0.33101        3.08695        2.06291
H          0.10470        4.26890        0.76225
H         -0.95413        2.84441        0.83050
C          2.46112        3.04848        0.42923
H          2.42164        4.14371        0.32922
H          2.73636        2.81696        1.46988
H          3.25535        2.67959       -0.22964
