34
Benzoisoxazole_H11_deriv1_Int1_Sub23.log	Energy: -965165.1039655
C          0.19831       -1.02073        1.16689
C         -1.09837       -0.53952        1.46070
C          0.35087       -1.65578       -0.09169
C         -2.16874       -0.64533        0.57832
O         -1.46980        0.07962        2.57404
C         -0.76038       -1.78029       -0.98465
H          1.26161       -2.21632       -0.31053
C         -2.00271       -1.27924       -0.67417
C         -3.23233        0.00605        1.30473
N         -2.79950        0.42804        2.47373
Cl        -0.49246       -2.57326       -2.49710
H         -2.81858       -1.37982       -1.38791
N         -4.52744        0.18892        0.93829
O          2.94314       -0.38687       -0.08544
C          3.51091       -0.50594        1.08546
O          2.95309       -0.35266        2.15708
C          4.97731       -0.85294        0.97381
H          5.52562        0.03269        0.61901
H          5.36173       -1.15100        1.95634
H          5.13339       -1.65106        0.23536
H          0.99251       -1.03595        1.92190
Pd         1.15039        0.40276       -0.25881
O          1.54499        2.33255       -1.03537
C          0.29998        2.52620       -1.11114
O         -0.46589        1.57324       -0.74865
C         -0.26514        3.82479       -1.56934
H          0.42963        4.31750       -2.26073
H         -1.24503        3.66932       -2.03803
H         -0.40081        4.47494       -0.69111
H         -5.05889        0.76603        1.57678
C         -4.98851        0.08160       -0.41866
H         -6.03125        0.42064       -0.46489
H         -4.97719       -0.96260       -0.77256
H         -4.40179        0.69521       -1.12654
