32
Benzoisoxazole_H8_Int1_Sub25.log	Energy: -828868.5391424
C         -0.43502       -1.28271        1.22731
C          0.10342       -1.51727       -0.06825
C          0.41265       -0.67014        2.16963
C          1.44606       -1.16823       -0.35044
C         -0.28457       -2.21533       -1.27334
C          1.71264       -0.29390        1.84100
H          0.03395       -0.48811        3.17628
C          2.26359       -0.53961        0.57674
O          1.76031       -1.57151       -1.58446
H         -1.25026       -2.65494       -1.51642
N          0.67704       -2.22554       -2.13884
H          2.33633        0.20173        2.58599
C          3.67211       -0.13987        0.22770
O         -2.74034       -0.68047       -0.51734
C         -3.61486       -0.79790        0.44876
O         -3.40866       -0.45605        1.59948
C         -4.91957       -1.39877       -0.01251
H         -5.52584       -1.67869        0.85703
H         -5.46235       -0.65110       -0.61023
H         -4.74368       -2.26869       -0.66005
H         -1.40778       -1.66624        1.53775
Pd        -1.15232        0.40862       -0.09298
O         -1.66524        2.34676       -0.72695
C         -0.49977        2.72923       -0.42342
O          0.28831        1.85118        0.06104
C         -0.04535        4.12670       -0.64760
H         -0.90072        4.81291       -0.61945
H          0.70907        4.40355        0.09965
H          0.41908        4.18714       -1.64413
F          4.28195        0.43674        1.26438
F          3.68815        0.72440       -0.78636
F          4.39841       -1.19754       -0.13416
