35
Benzoisoxazole_H8_deriv1_Int1_Sub22.log	Energy: -666782.6028444
C          0.00498       -1.27203        1.11566
C          0.43895       -1.59245       -0.19957
C          0.95509       -0.66727        1.96218
C          1.77111       -1.31637       -0.57285
C         -0.06517       -2.29681       -1.35267
C          2.25388       -0.35741        1.54779
H          0.65179       -0.42365        2.98233
C          2.70175       -0.69657        0.24642
O          1.98077       -1.76965       -1.82259
H         -1.06466       -2.69512       -1.51862
N          0.83572       -2.37945       -2.28110
C          3.18715        0.35341        2.47878
C          4.08124       -0.39226       -0.23799
O         -2.41511       -0.59172       -0.36638
C         -3.20422       -0.63828        0.67483
O         -2.89139       -0.26419        1.79070
C         -4.56517       -1.20594        0.34884
H         -5.11297       -1.41023        1.27635
H         -5.12313       -0.47196       -0.25177
H         -4.47273       -2.11878       -0.25577
H         -0.94648       -1.61247        1.52497
Pd        -0.74142        0.42296       -0.13330
O         -1.19261        2.36081       -0.84993
C          0.01235        2.68394       -0.66073
O          0.79128        1.79190       -0.18935
C          0.52033        4.04147       -1.00260
H         -0.26457        4.79007       -0.83560
H          1.41654        4.27356       -0.41401
H          0.78673        4.05815       -2.07076
H          4.12564       -0.20533        2.62044
H          2.72833        0.50839        3.46381
H          3.45911        1.34091        2.07211
H          4.24912        0.69650       -0.25941
H          4.24050       -0.78408       -1.25023
H          4.84487       -0.82404        0.42727
