33
Benzo13dioxol_H8_deriv1_Int1_Sub22.log	Energy: -943691.1737998
C          0.38792       -1.01989       -1.22569
C          1.70992       -0.72267       -0.97278
C         -0.38129       -1.53423       -0.13395
C          2.27911       -0.93157        0.28468
O          2.64574       -0.19274       -1.79701
C          0.24247       -1.78248        1.12086
H         -1.34415       -2.00091       -0.34352
C          1.57847       -1.47537        1.35506
O          3.55603       -0.53043        0.26998
C          3.75111        0.15592       -0.97604
Cl        -0.69109       -2.50323        2.37708
H          2.04439       -1.63166        2.32681
C          5.04708       -0.24515       -1.61056
H          3.70136        1.24133       -0.76164
O         -2.84480        0.02176       -0.25091
C         -3.16229       -0.39888       -1.44245
O         -2.36877       -0.65570       -2.33217
C         -4.65676       -0.53405       -1.62429
H         -5.10166       -1.07373       -0.77694
H         -5.10757        0.46943       -1.64406
H         -4.86989       -1.05076       -2.56753
H         -0.09451       -0.90367       -2.19721
Pd        -0.99606        0.54599        0.14834
O         -1.18638        2.61583        0.63241
C          0.04588        2.64074        0.88561
O          0.69884        1.55146        0.75587
C          0.73946        3.89689        1.28966
H          1.60810        3.66697        1.91963
H          1.09367        4.41077        0.38251
H          0.04120        4.56318        1.81131
H          5.88466        0.01833       -0.95051
H          5.16786        0.28179       -2.56679
H          5.05204       -1.32882       -1.79201
