30
Benzofuran_H9_Int1_Sub10.log	Energy: -895760.5288909
C         -0.28181       -1.03968        1.15543
C         -1.54840       -0.52469        1.47076
C         -0.14627       -1.61039       -0.13860
C         -2.63548       -0.54439        0.59190
O         -1.89399        0.06519        2.63229
C         -1.26704       -1.64792       -1.03060
H          0.73113       -2.21332       -0.37921
C         -2.49044       -1.12069       -0.69245
C         -3.70768        0.08905        1.30039
C         -3.19044        0.42711        2.51435
Cl        -1.03083       -2.37883       -2.57875
H         -3.31915       -1.14948       -1.40070
H         -4.72245        0.27034        0.95498
H         -3.62260        0.91855        3.38275
O          2.51375       -0.50632       -0.12407
C          3.07309       -0.69166        1.04056
O          2.52605       -0.53558        2.11839
C          4.51660       -1.12251        0.91834
H          4.62282       -1.91526        0.16527
H          5.11594       -0.26526        0.57664
H          4.88550       -1.46097        1.89373
H          0.52129       -1.10926        1.89750
Pd         0.76428        0.38616       -0.25912
O          1.25280        2.34708       -0.90797
C          0.01793        2.59666       -0.97979
O         -0.79082        1.65944       -0.67529
C         -0.48737        3.94164       -1.37167
H         -1.50465        3.86514       -1.77501
H         -0.51143        4.58144       -0.47596
H          0.19243        4.40129       -2.10030
