32
Benzoisoxazole_H9_Int1_Sub25.log	Energy: -828873.6946598
C         -0.67884       -0.44188        1.86707
C          0.28539       -0.95453        0.96461
C         -0.39896        0.71705        2.66395
C          1.52499       -0.26137        0.89578
H          0.15727       -1.93358        0.49915
C          0.79823        1.38524        2.58320
H         -1.17255        1.06344        3.35171
C          1.74104        0.86901        1.67332
C          2.74333       -0.36251        0.16302
H          1.01809        2.27125        3.17929
O          2.95917        1.36145        1.41805
C          3.07069       -1.36397       -0.90597
N          3.57319        0.59229        0.47571
O         -2.13369       -1.45734       -0.52333
C         -3.24790       -1.64578        0.13508
O         -3.62781       -0.95062        1.06028
C         -4.03207       -2.82734       -0.38251
H         -3.37551       -3.69563       -0.53038
H         -4.84242       -3.06745        0.31579
H         -4.45819       -2.56910       -1.36357
H         -1.58983       -1.00325        2.08454
Pd        -1.17703        0.22846       -0.18585
O         -1.81898        1.53035       -1.72912
C         -0.99729        2.39036       -1.30740
O         -0.30164        2.08110       -0.28293
C         -0.81111        3.70060       -1.98723
H         -1.74040        4.00362       -2.48536
H         -0.48254        4.46002       -1.26668
H         -0.02772        3.58830       -2.75283
F          4.35032       -1.35118       -1.23400
F          2.35062       -1.11444       -2.00219
F          2.74835       -2.59232       -0.48979
