38
Benzooxazole_H10_Int1_Sub21.log	Energy: -691459.2994850
C         -0.14061       -0.69001       -2.08172
C          0.18982       -1.32302       -0.84097
C         -1.43186       -0.27533       -2.36994
C         -0.78397       -1.57571        0.16717
H          1.15998       -1.81397       -0.77745
C         -2.36621       -0.52024       -1.36868
H         -1.69500        0.22318       -3.30246
C         -2.07827       -1.13523       -0.14072
C         -0.49182       -2.27608        1.47114
O         -3.68147       -0.21155       -1.36130
N         -3.24702       -1.19076        0.60464
C         -4.12727       -0.64353       -0.15260
H         -5.18591       -0.48662        0.05076
O          2.51163       -0.09550        0.37181
C          3.28134       -0.28786       -0.66489
O          2.91678       -0.20959       -1.82495
C          4.70075       -0.62941       -0.27490
H          4.71098       -1.48432        0.41630
H          5.28691       -0.85823       -1.17263
H          5.14875        0.22264        0.25704
H          0.67506       -0.54796       -2.79261
Pd         0.70108        0.60951        0.05494
O          0.79055        2.56618        0.89465
C         -0.43468        2.69821        0.63568
O         -1.02338        1.72215        0.06181
C         -1.19311        3.92635        1.00490
H         -1.90441        4.18200        0.20834
H         -1.77014        3.72262        1.91999
H         -0.50401        4.75777        1.19534
H         -1.29356       -3.02803        1.58262
C          0.85694       -2.98167        1.49405
H          0.98273       -3.51749        2.44621
H          0.94943       -3.71820        0.68132
H          1.68154       -2.25749        1.40316
C         -0.63046       -1.30229        2.64667
H         -1.61235       -0.80928        2.63993
H         -0.51890       -1.84027        3.60029
H          0.15213       -0.52727        2.59693
