27
Benzene_H10_Int1_Sub5.log	Energy: -2127225.5656202
C          0.03246       -1.62131       -0.52050
C          1.35943       -1.27928       -0.87882
C         -0.36977       -1.58278        0.83808
C          2.23957       -0.88412        0.10730
H          1.67581       -1.32887       -1.92141
C          0.57359       -1.19851        1.82406
H         -1.34448       -1.96549        1.14929
C          1.85545       -0.84514        1.46579
Br         3.99529       -0.38779       -0.34961
H          0.27246       -1.18310        2.87321
H          2.58071       -0.53297        2.21860
O         -2.66338       -0.64763       -0.87339
C         -3.56411       -1.03731       -0.01046
O         -3.41520       -1.02684        1.19850
C         -4.83776       -1.50337       -0.67544
H         -5.47919       -2.00061        0.06170
H         -5.36392       -0.62999       -1.08916
H         -4.61492       -2.17732       -1.51402
H         -0.63116       -2.05725       -1.27041
Pd        -1.08684        0.29169       -0.16042
O         -1.57776        2.34152       -0.34492
C         -0.42623        2.62742        0.08771
O          0.35127        1.65750        0.36717
C          0.00417        4.03679        0.29907
H         -0.30698        4.35050        1.30756
H          1.09638        4.11539        0.23109
H         -0.48536        4.69433       -0.43033
