33
Benzoicacid_H10_Int1_Sub14.log	Energy: -655392.6339633
C          0.28674       -1.45640        0.18996
C          1.66595       -1.21437       -0.04391
C         -0.29418       -1.17250        1.44303
C          2.11356       -1.54364       -1.42465
C          2.46454       -0.66826        0.96647
C          0.52663       -0.63016        2.46697
H         -1.28860       -1.56408        1.66261
O          3.44107       -1.50837       -1.60907
O          1.35747       -1.82753       -2.31904
C          1.85578       -0.38361        2.21727
C          3.91854       -0.34136        0.81302
H          0.10047       -0.42176        3.45070
H          3.58105       -1.74023       -2.54017
H          2.47857        0.04942        3.00338
O         -2.69439        0.02850        0.09655
C         -3.16744       -1.14709       -0.21042
O         -2.51361       -2.16262       -0.36028
C         -4.67145       -1.12064       -0.37289
H         -5.04990       -2.14536       -0.46666
H         -5.14309       -0.60888        0.47732
H         -4.92433       -0.54915       -1.27835
H         -0.30672       -1.98876       -0.55724
Pd        -0.80888        0.55459        0.14972
O         -0.97649        2.50414       -0.67960
C          0.25877        2.66445       -0.48544
O          0.90102        1.69866        0.04390
C          0.94630        3.94074       -0.82860
H          0.80863        4.64967        0.00240
H          2.02059        3.77068       -0.97133
H          0.49497        4.38009       -1.72741
H          4.07793        0.34505       -0.02988
H          4.51169       -1.24025        0.59531
H          4.30436        0.12699        1.72783
