42
Benzo13dioxol_H8_deriv1_Int1_Sub12.log	Energy: -1017628.1830897
C          0.39784        0.01344        1.98476
C         -0.81305        0.65711        2.01665
C          0.49112       -1.07302        1.07116
C         -1.88513        0.28121        1.19422
O         -1.16570        1.73181        2.76324
C         -0.63048       -1.47243        0.29181
H          1.32158       -1.77138        1.17282
C         -1.86373       -0.78546        0.27935
O         -2.90354        1.13347        1.43317
C         -2.39574        2.17624        2.24700
Cl        -0.34745       -2.91731       -0.62763
C         -3.02049       -1.11271       -0.68053
H         -3.10125        2.37624        3.06713
H         -2.24670        3.08022        1.62594
O          2.96675       -0.70004       -0.41559
C          3.70397       -0.75357        0.65764
O          3.37897       -0.32972        1.75393
C          5.04408       -1.40439        0.40246
H          4.91739       -2.34405       -0.15274
H          5.65416       -0.73610       -0.22342
H          5.55609       -1.58373        1.35525
H          1.25752        0.27293        2.60218
Pd         1.30255        0.33949       -0.39051
O          1.66393        1.85217       -1.85440
C          0.49443        2.27604       -1.66866
O         -0.23033        1.66088       -0.81603
C         -0.02901        3.47166       -2.38941
H         -1.12594        3.46235       -2.40302
H          0.31113        4.37701       -1.86322
H          0.37546        3.50275       -3.40927
C         -4.19386       -0.13114       -0.56596
H         -4.95848       -0.43129       -1.29809
H         -4.65576       -0.14267        0.42951
H         -3.89368        0.90046       -0.79168
C         -2.50615       -1.00885       -2.12701
H         -1.72328       -1.74101       -2.35668
H         -3.34082       -1.17669       -2.82504
H         -2.09799       -0.00345       -2.30953
C         -3.58077       -2.51157       -0.37849
H         -4.39752       -2.73790       -1.08157
H         -2.82724       -3.30229       -0.47099
H         -3.99434       -2.54765        0.64102
