33
Benzothiophene_H13_deriv1_Int1_Sub18.log	Energy: -1309783.1179853
C         -0.28890        0.62445       -1.13321
C          1.06337        0.11620       -0.98931
C         -1.07396       -0.22314       -1.93303
C          1.25001       -1.07631       -1.71388
C          2.11333        0.64640       -0.20512
H         -2.02182        0.05093       -2.39911
S         -0.18139       -1.57530       -2.57418
C          2.46744       -1.75752       -1.68563
C          3.32849       -0.03836       -0.19371
C          1.78796        1.89594        0.58985
C          3.49612       -1.22435       -0.93490
H          2.61069       -2.68641       -2.24033
Cl         4.71365        0.47163        0.70752
H          4.46655       -1.72063       -0.89384
O         -3.24935        0.50975       -0.24286
C         -3.27481        1.81509       -0.17860
O         -2.30058        2.54034       -0.09988
C         -4.68641        2.35509       -0.20135
H         -5.28274        1.85472       -0.97637
H         -5.16310        2.14078        0.76704
H         -4.66483        3.43886       -0.36546
H         -0.62703        1.62722       -0.84564
Pd        -1.62381       -0.53341        0.13910
O         -2.08903       -1.50983        1.97439
C         -0.98100       -2.10765        1.89693
O         -0.24649       -1.85995        0.88374
C         -0.54604       -3.09086        2.92703
H         -1.00700       -4.06465        2.70042
H          0.54483       -3.20405        2.91100
H         -0.89455       -2.77333        3.91816
F          2.80209        2.38708        1.28348
F          0.79960        1.63861        1.45442
F          1.35993        2.86410       -0.22776
