29
Benzothiazole_H11_Int1_Sub10.log	Energy: -1108453.6928461
C         -0.25681       -0.46013       -1.39024
C         -1.53672       -0.90276       -0.98465
C         -0.01686        0.93677       -1.39282
C         -2.54066        0.00031       -0.59393
S         -2.13191       -2.51700       -0.85469
C         -1.05929        1.84181       -1.01348
H          0.87629        1.33601       -1.87694
C         -2.29284        1.39476       -0.61301
N         -3.72465       -0.57382       -0.21614
C         -3.64678       -1.86078       -0.30429
Cl        -0.71049        3.53143       -1.05946
H         -3.07974        2.08485       -0.30902
H         -4.47019       -2.53645       -0.05795
O          2.61821        0.14728       -0.52115
C          3.04126       -0.94294       -1.10126
O          2.37214       -1.94670       -1.27891
C          4.48476       -0.84040       -1.53437
H          4.67294        0.11837       -2.03648
H          5.12660       -0.87279       -0.64114
H          4.73399       -1.68024       -2.19356
H          0.47973       -1.15589       -1.80485
Pd         0.89811        0.12120        0.43793
O          1.44443       -0.09239        2.47451
C          0.22459        0.01717        2.78129
O         -0.60702        0.17414        1.82765
C         -0.23324       -0.00202        4.19732
H         -0.12119        1.01025        4.61555
H         -1.29024       -0.28993        4.25266
H          0.39360       -0.68417        4.78577
