33
Benzofuran_H13_deriv1_Int1_Sub6.log	Energy: -920415.2783126
C          0.19070       -1.32489        0.35732
C          1.56071       -1.15553       -0.08145
C          0.13601       -0.67284        1.60829
C          2.20288       -0.42669        0.92706
C          2.23577       -1.51405       -1.25866
Cl        -0.95122       -0.89194        2.89991
O          1.34004       -0.16264        1.95695
C          3.52405       -0.02032        0.84903
C          3.57267       -1.12012       -1.33675
C          1.53085       -2.26666       -2.34267
C          4.19954       -0.39651       -0.31009
H          3.99408        0.56016        1.64276
H          4.14581       -1.37261       -2.23226
H          5.24718       -0.11047       -0.42900
O         -2.48319       -0.43630        0.06806
C         -2.71994       -1.14633       -0.99986
O         -1.90361       -1.36364       -1.88116
C         -4.13114       -1.68134       -1.04441
H         -4.40469       -2.13046       -0.07974
H         -4.82382       -0.84544       -1.22337
H         -4.22520       -2.41419       -1.85435
H         -0.52321       -2.05454       -0.01661
Pd        -0.77723        0.56218        0.04641
O         -1.27869        2.47654       -0.74428
C         -0.07534        2.81993       -0.58301
O          0.72243        1.96320       -0.07951
C          0.40281        4.18562       -0.93689
H          1.48864        4.18214       -1.09169
H         -0.12233        4.54710       -1.83029
H          0.16593        4.86643       -0.10474
H          0.50166       -1.89756       -2.47676
H          1.45748       -3.33747       -2.08826
H          2.06873       -2.18937       -3.29728
