46
Benzofuran_H13_deriv1_Int1_Sub11.log	Energy: -1042913.4145115
C          1.25454       -1.50047        0.25880
C          0.06619       -1.58557        1.08409
C          0.77613       -1.10067       -1.00931
C         -1.00563       -1.21928        0.26160
C         -0.16963       -1.90331        2.42503
Cl         1.45992       -1.32665       -2.55315
O         -0.57077       -0.95296       -1.00984
C         -2.32825       -1.11241        0.68127
C         -1.48317       -1.84272        2.87205
H          0.65105       -2.18263        3.08769
C         -2.53162       -1.45361        2.02123
C         -3.39095       -0.60454       -0.25626
H         -1.71149       -2.09333        3.91019
H         -3.54445       -1.41317        2.42657
O          3.48084        0.17094       -0.70104
C          4.33772       -0.49334        0.02298
O          4.08646       -1.04876        1.07913
C          5.71377       -0.51460       -0.60189
H          5.65226       -0.88319       -1.63566
H          6.11106        0.50997       -0.64554
H          6.38101       -1.14968       -0.00764
H          2.24021       -1.90869        0.48872
Pd         1.69007        0.60048        0.00067
O          1.79458        2.69363        0.44259
C          0.57130        2.65300        0.74274
O         -0.02665        1.53028        0.64468
C         -0.17647        3.86975        1.16638
H         -1.05125        3.58934        1.76605
H          0.48540        4.54490        1.72334
H         -0.52371        4.39807        0.26489
H         -3.12906       -0.97089       -1.26579
C         -3.36202        0.93187       -0.31852
H         -2.34404        1.27622       -0.55473
H         -3.59075        1.32237        0.68973
C         -4.37378        1.46595       -1.32499
H         -4.36056        2.56802       -1.32538
H         -4.07039        1.15334       -2.34057
C         -5.77986        0.94990       -1.03874
H         -6.48532        1.30669       -1.80642
H         -6.12990        1.36805       -0.07731
C         -5.80805       -0.57291       -0.95847
H         -5.57071       -0.99507       -1.95169
H         -6.82072       -0.92656       -0.70653
C         -4.80169       -1.09764        0.06022
H         -5.09816       -0.74490        1.06419
H         -4.81931       -2.19915        0.09538
