42
Benzofuran_H13_deriv1_Int1_Sub4.log	Energy: -994362.4096189
C         -0.07374        0.74164        0.91626
C         -1.43751        0.24323        0.85454
C          0.59500       -0.14153        1.78932
C         -1.46042       -0.87990        1.69601
C         -2.59224        0.61580        0.13213
Cl         1.99113        0.11004        2.73306
O         -0.23703       -1.09396        2.26696
C         -2.57300       -1.67684        1.90186
C         -3.72088       -0.17605        0.35780
C         -2.58793        1.78424       -0.85121
C         -3.71646       -1.28561        1.21714
H         -2.54031       -2.54675        2.55764
H         -4.65018        0.06012       -0.15890
H         -4.63714       -1.86052        1.34085
O          2.67948        0.66333       -0.23798
C          2.60396        1.92755       -0.52922
O          1.57389        2.55530       -0.72722
C          3.96554        2.58055       -0.58807
H          4.48364        2.44301        0.37194
H          4.57693        2.09130       -1.35986
H          3.85719        3.64815       -0.81166
H          0.30845        1.71383        0.59543
Pd         1.13697       -0.56521       -0.29912
O          1.60302       -1.85083       -1.94317
C          0.55463       -2.50061       -1.68095
O         -0.15137       -2.11336       -0.69175
C          0.15336       -3.69942       -2.46870
H         -0.94003       -3.79165       -2.48610
H          0.56194       -3.64006       -3.48494
H          0.56595       -4.59477       -1.97844
C         -3.94577        1.94398       -1.53771
H         -3.90266        2.79366       -2.23499
H         -4.21823        1.05073       -2.12046
H         -4.75246        2.14868       -0.81710
C         -2.27469        3.09096       -0.10624
H         -1.28191        3.07787        0.36226
H         -2.28691        3.93581       -0.81202
H         -3.02348        3.28674        0.67661
C         -1.52761        1.53121       -1.93665
H         -1.60869        2.30076       -2.71997
H         -0.50099        1.58577       -1.54766
H         -1.67788        0.54732       -2.40775
