30
Benzofuran_H13_Int1_Sub2.log	Energy: -895761.0742406
C         -0.11090       -1.36271        0.43282
C         -1.52066       -1.21884        0.73795
C         -0.04799       -1.28684       -0.97593
C         -2.17162       -1.06337       -0.49375
C         -2.26349       -1.18472        1.92143
Cl         1.12285       -1.89811       -2.05052
O         -1.27836       -1.12637       -1.52479
C         -3.53672       -0.86284       -0.61594
C         -3.63821       -1.00294        1.82159
H         -1.77192       -1.29413        2.88980
C         -4.26210       -0.84376        0.57315
H         -4.00710       -0.73147       -1.59073
H         -4.24630       -0.97755        2.72815
H         -5.34405       -0.69902        0.53245
O          2.49508       -0.02373        0.01542
C          2.97858       -0.57574        1.09217
O          2.32645       -0.93052        2.06019
C          4.47814       -0.74933        1.01532
H          4.74399       -1.31193        0.10903
H          4.95798        0.23706        0.93752
H          4.83728       -1.27267        1.90905
H          0.67666       -1.71081        1.10634
Pd         0.62710        0.59633       -0.08926
O          0.81133        2.72161       -0.04815
C         -0.43738        2.79659       -0.21113
O         -1.08884        1.70494       -0.30845
C         -1.13560        4.10792       -0.31799
H         -2.20008        3.99518       -0.07891
H         -0.65779        4.84225        0.34315
H         -1.04140        4.47150       -1.35291
