33
Benzofuran_H9_Int1_Sub9.log	Energy: -818835.8795618
C         -0.05141       -0.21422       -1.61509
C         -1.03701       -1.21893       -1.60125
C         -0.39340        0.99330       -0.95481
C         -2.27972       -1.08422       -0.97746
O         -0.92557       -2.43344       -2.16574
C         -1.67134        1.14231       -0.32264
H          0.22993        1.87833       -1.09980
C         -2.59824        0.12757       -0.32092
C         -2.95273       -2.33038       -1.19526
C         -2.08199       -3.09079       -1.91412
C         -1.95111        2.44393        0.37316
H         -3.55903        0.26031        0.17793
H         -3.94556       -2.62171       -0.86157
H         -2.14555       -4.09951       -2.31466
O          2.38855        1.02494       -0.20459
C          3.16249        0.63654       -1.18199
O          2.95027       -0.31807       -1.90914
C          4.38862        1.50851       -1.32040
H          4.11508        2.57173       -1.27994
H          5.06233        1.31248       -0.47279
H          4.90407        1.27538       -2.25951
H          0.86054       -0.31373       -2.21332
Pd         0.92030       -0.13321        0.40877
O          1.68011       -1.01876        2.17991
C          0.55723       -1.56863        2.35036
O         -0.34872       -1.33651        1.48341
C          0.29831       -2.48139        3.49780
H         -0.77549       -2.52307        3.71815
H          0.64144       -3.49170        3.22620
H          0.86863       -2.15253        4.37580
F         -3.21980        2.53486        0.77481
F         -1.70210        3.48578       -0.42686
F         -1.17649        2.59101        1.45482
