32
Benzooxazole_H10_Int1_Sub30.log	Energy: -642164.7079135
C         -0.20301       -1.66067        0.52533
C         -0.12642       -1.62254       -0.90068
C          0.93497       -1.39552        1.32397
C          1.08807       -1.32359       -1.56449
H         -0.97953       -1.98196       -1.47963
C          2.08052       -1.07494        0.64024
H          0.88783       -1.43385        2.41215
C          2.18294       -1.03206       -0.77466
H          1.15642       -1.32093       -2.65270
O          3.29835       -0.74537        1.13263
N          3.47932       -0.67370       -1.10291
C          4.07460       -0.51932        0.02969
C          5.47717       -0.13307        0.28035
O         -2.76438       -0.44839       -0.63693
C         -3.48725       -0.89960        0.35267
O         -3.09042       -1.04855        1.49487
C         -4.90375       -1.21736       -0.06749
H         -4.91259       -1.78802       -1.00629
H         -5.40993       -1.77446        0.72975
H         -5.44030       -0.27474       -0.25314
H         -1.11785       -2.00601        1.01322
Pd        -1.00414        0.32336       -0.21386
O         -1.35809        2.41475       -0.10300
C         -0.12086        2.58413        0.07675
O          0.61847        1.54651        0.09694
C          0.46121        3.94487        0.24840
H          1.52716        3.88016        0.49641
H          0.33019        4.51092       -0.68568
H         -0.08575        4.47991        1.03729
H          5.99346       -0.91355        0.85947
H          5.51829        0.79635        0.86825
H          5.98712        0.01382       -0.67778
