44
Benzoisoxazole_H9_deriv1_Int1_Sub1.log	Energy: -927474.9850143
C         -0.31549       -0.64477        1.25592
C         -0.44398       -1.35771        0.04050
C          0.95441       -0.15173        1.68805
C          0.75582       -1.57071       -0.69661
C         -1.63230       -2.24985       -0.25370
C          2.12379       -0.32436        0.97509
H          0.96686        0.39078        2.63241
C          1.96020       -1.05390       -0.23542
C          1.11983       -2.20908       -1.91893
C          3.47419        0.22608        1.40413
O          2.92445       -1.36156       -1.11060
H          0.49367       -2.75190       -2.62576
N          2.39407       -2.07987       -2.15215
O         -2.86060        0.52039        0.11300
C         -3.27468        0.80815        1.31746
O         -2.54911        1.13141        2.24162
C         -4.77101        0.66602        1.45321
H         -5.04944       -0.38504        1.28686
H         -5.08301        0.98311        2.45506
H         -5.27967        1.26443        0.68460
H         -1.15112       -0.59123        1.95547
Pd        -0.96781        0.80135       -0.30146
O         -1.01615        2.61877       -1.37035
C          0.22882        2.52470       -1.56059
O          0.81600        1.50047       -1.08102
C          0.99424        3.57769       -2.28145
H          0.35976        4.05545       -3.03848
H          1.30021        4.34672       -1.55514
H          1.89603        3.14829       -2.73547
C          3.37516        0.96737        2.73641
H          4.36778        1.35141        3.01398
H          2.69136        1.82777        2.67709
H          3.03592        0.30842        3.55029
C          4.47061       -0.93451        1.55432
H          4.60598       -1.48140        0.61140
H          5.45198       -0.54241        1.86276
H          4.13225       -1.64598        2.32317
C          3.96531        1.20806        0.32706
H          4.93013        1.64063        0.63396
H          4.10528        0.71041       -0.64200
H          3.24064        2.02319        0.18775
F         -2.57491       -2.16910        0.67507
F         -1.21772       -3.52466       -0.29050
F         -2.17187       -1.98628       -1.44232
