39
Benzofuran_H9_Int1_Sub21.log	Energy: -681396.0989118
C         -0.19888       -1.45209        0.53718
C          1.15515       -1.08537        0.52967
C         -0.92327       -1.11119        1.71370
C          1.78959       -0.41711        1.58095
O          2.02205       -1.29286       -0.48144
C         -0.27994       -0.44901        2.80450
H         -1.92135       -1.52902        1.85962
C          1.04882       -0.09649        2.74364
C          3.13907       -0.21882        1.14336
C          3.21903       -0.76537       -0.10683
H         -0.86676       -0.22815        3.69803
H          1.52677        0.42227        3.57715
H          3.94540        0.27107        1.68227
C          4.31836       -0.86923       -1.10790
O         -3.11041       -0.59669       -0.08713
C         -3.18057       -1.47600       -1.04887
O         -2.23476       -1.88510       -1.69923
C         -4.59706       -1.94530       -1.29312
H         -5.09533       -2.18739       -0.34433
H         -5.16702       -1.12920       -1.76216
H         -4.58894       -2.81559       -1.95998
H         -0.63224       -2.06437       -0.25957
Pd        -1.43631        0.40647        0.18447
O         -1.79126        2.26559       -0.78548
C         -0.65721        2.65142       -0.38934
O          0.02775        1.84496        0.31966
C         -0.11290        3.98799       -0.76159
H          0.63542        4.31375       -0.02850
H          0.37271        3.90627       -1.74635
H         -0.92842        4.71771       -0.84371
H          4.44058       -1.94671       -1.32604
C          3.92442       -0.17386       -2.41364
H          4.70384       -0.31880       -3.17660
H          2.97850       -0.57292       -2.80574
H          3.79773        0.90820       -2.25192
C          5.63003       -0.33682       -0.54823
H          5.92442       -0.86456        0.37104
H          6.43778       -0.46126       -1.28381
H          5.55241        0.73739       -0.31692
