41
Benzoisoxazole_H8_Int1_Sub28.log	Energy: -716077.8828627
C         -0.50459       -1.35430        1.12181
C          0.10083       -1.56477       -0.14780
C          0.31671       -0.77968        2.11051
C          1.44638       -1.20380       -0.36359
C         -0.26361       -2.18856       -1.39378
C          1.63194       -0.40444        1.84173
H         -0.09728       -0.62248        3.10793
C          2.25780       -0.59541        0.59663
O          1.78858       -1.55211       -1.62018
H         -1.22514       -2.60902       -1.68366
N          0.72280       -2.16540       -2.23420
H          2.20090        0.06688        2.64249
C          3.67970       -0.15080        0.28603
O         -2.79315       -0.61907       -0.50238
C         -3.67009       -0.76181        0.45682
O         -3.46999       -0.45660        1.61860
C         -4.97534       -1.34556       -0.02841
H         -5.59344       -1.63430        0.82991
H         -5.50620       -0.58666       -0.62257
H         -4.79709       -2.20790       -0.68559
H         -1.47702       -1.76789        1.38882
Pd        -1.18520        0.42373       -0.04503
O         -1.60295        2.36854       -0.76608
C         -0.43660        2.71573       -0.43513
O          0.30387        1.83237        0.11071
C          0.08129        4.08716       -0.69538
H         -0.75007        4.79091       -0.82290
H          0.74076        4.40240        0.12373
H          0.67508        4.06799       -1.62240
C          4.33832        0.51592        1.49286
H          5.35956        0.82514        1.22524
H          3.79119        1.41627        1.81136
H          4.41524       -0.16858        2.35168
C          4.51713       -1.37177       -0.12538
H          4.09958       -1.87067       -1.01050
H          5.54410       -1.05539       -0.36555
H          4.57008       -2.10572        0.69343
C          3.62336        0.86464       -0.86792
H          4.63630        1.23555       -1.08910
H          3.21886        0.41137       -1.78353
H          2.98410        1.71786       -0.59707
