29
Benzoisoxazole_H10_Int1_Sub2.log	Energy: -905800.6252557
C         -0.08868       -1.48747        0.42490
C         -1.07647       -1.26402        1.43641
C         -0.40904       -1.30769       -0.94543
C         -2.35879       -0.87108        1.13381
Cl        -0.60234       -1.49006        3.07931
C         -1.74289       -0.92351       -1.22333
H          0.25814       -1.65725       -1.73534
C         -2.68650       -0.69554       -0.22978
H         -3.08839       -0.70044        1.92594
O         -2.28430       -0.71371       -2.42474
C         -3.83976       -0.31970       -0.98626
N         -3.59226       -0.33542       -2.26544
H         -4.83444       -0.04075       -0.63977
O          2.25867       -0.28512       -1.17715
C          3.11227       -1.00055       -0.49224
O          2.92772       -1.41828        0.63662
C          4.38904       -1.25421       -1.25820
H          4.97789       -2.02579       -0.74843
H          4.17068       -1.55027       -2.29323
H          4.96857       -0.31974       -1.30069
H          0.87524       -1.91958        0.71530
Pd         0.68862        0.48483       -0.27612
O          1.23245        2.50530        0.01879
C          0.07997        2.71903        0.48864
O         -0.72797        1.73266        0.52536
C         -0.31919        4.05267        1.01327
H          0.22801        4.84483        0.48724
H         -1.40343        4.19073        0.91739
H         -0.05562        4.10057        2.08129
