46
Benzo13dioxol_H9_Int1_Sub19.log	Energy: -777871.5122920
C         -0.95523        0.64232       -1.82071
C         -0.61863        2.02117       -1.85862
C         -0.00165       -0.33821       -1.43158
C          0.65497        2.33794       -1.47077
H         -1.34221        2.77850       -2.15721
C          1.33602        0.01429       -1.05784
H         -0.24162       -1.38835       -1.60445
C          1.59565        1.35981       -1.07628
O          1.22886        3.55372       -1.37712
C          2.34555       -0.97292       -0.54213
O          2.74721        1.98102       -0.72724
C          2.48650        3.36962       -0.75549
H          3.26618        3.88379       -1.33856
H          2.44786        3.76160        0.27756
O         -2.28090       -1.58772       -0.18731
C         -3.43104       -1.41400       -0.78039
O         -3.84989       -0.34746       -1.19351
C         -4.21629       -2.70057       -0.89986
H         -3.58192       -3.50590       -1.29553
H         -4.55032       -3.01085        0.10152
H         -5.08852       -2.54388       -1.54542
H         -1.92481        0.32859       -2.21364
Pd        -1.25938        0.01557        0.33222
O         -1.72971        0.32943        2.39872
C         -0.89959        1.27574        2.41196
O         -0.27407        1.53473        1.33049
C         -0.66265        2.09647        3.63444
H         -1.00406        1.55924        4.52739
H          0.40171        2.35380        3.71519
H         -1.23213        3.03437        3.54505
H          3.34260       -0.59606       -0.83487
C          2.19077       -2.38349       -1.10895
H          2.22306       -2.35573       -2.21043
H          1.19949       -2.78234       -0.82973
C          3.26420       -3.31754       -0.56060
H          3.12708       -4.33096       -0.97041
H          4.25598       -2.97425       -0.90664
C          3.24577       -3.35289        0.96396
H          4.04930       -4.00493        1.34266
H          2.29467       -3.80199        1.30256
C          3.37370       -1.95258        1.55376
H          4.37517       -1.54803        1.31952
H          3.30398       -1.98931        2.65292
C          2.31354       -1.01133        0.99606
H          1.30813       -1.34384        1.31310
H          2.44049        0.00779        1.39313
