37
Benzothiophene_H13_deriv1_Int1_Sub32.log	Energy: -1031041.2986735
C         -0.25692        0.72926        0.81127
C         -1.44790       -0.09132        0.68967
C          0.62814        0.21870        1.77784
C         -1.42179       -1.19146        1.57113
C         -2.53872        0.06052       -0.18510
H          1.50526        0.73869        2.18629
S          0.01859       -1.20685        2.55878
C         -2.45403       -2.13177        1.59679
C         -3.56987       -0.86657       -0.15112
C         -2.54296        1.22288       -1.15551
C         -3.52662       -1.95308        0.73507
H         -2.41750       -2.98445        2.27735
H         -4.41419       -0.74684       -0.83067
H         -4.34807       -2.67272        0.74111
O          2.21134        1.56122       -0.43061
C          3.02208        2.05688        0.46126
O          3.20914        1.60973        1.58101
C          3.74341        3.28425       -0.04694
H          4.46078        2.98071       -0.82396
H          3.03406        3.98103       -0.51429
H          4.27772        3.76923        0.77841
H         -0.19121        1.74382        0.41530
Pd         1.37928       -0.21527       -0.23410
O          2.39806       -1.41243       -1.67285
C          1.61604       -2.35967       -1.38525
O          0.73208       -2.14603       -0.49175
C          1.73053       -3.69437       -2.03661
H          2.52798       -4.26301       -1.53384
H          0.78832       -4.24812       -1.94417
H          2.01455       -3.57328       -3.08993
F         -3.67550        1.19327       -1.90264
F         -1.51143        1.10937       -2.00737
O         -2.40364        2.44257       -0.57229
C         -3.40049        2.80846        0.35717
H         -4.39497        2.83043       -0.11493
H         -3.42158        2.12014        1.21925
H         -3.14462        3.81580        0.70599
