33
Benzoisoxazole_H11_deriv1_Int1_Sub24.log	Energy: -977620.1944172
C          0.12238       -0.92776        1.18960
C         -1.22417       -0.50526        1.27060
C          0.46147       -1.66215        0.02372
C         -2.15392       -0.76836        0.27602
O         -1.78440        0.19726        2.25762
C         -0.51592       -1.93802       -0.98803
H          1.41914       -2.18382       -0.02644
C         -1.81331       -1.49536       -0.88307
C         -3.33089       -0.13006        0.78760
N         -3.10607        0.42871        1.94814
Cl        -0.00598       -2.84447       -2.36673
H         -2.54592       -1.69864       -1.66429
O         -4.49887       -0.10598        0.17293
O          2.97429       -0.25138        0.20924
C          3.39925       -0.25387        1.44481
O          2.70663       -0.06002        2.42784
C          4.88401       -0.51806        1.53545
H          5.42491        0.37407        1.18558
H          5.15890       -0.72674        2.57605
H          5.17184       -1.35194        0.88093
H          0.81823       -0.82917        2.03100
Pd         1.17953        0.41593       -0.23934
O          1.57204        2.29188       -1.13667
C          0.33666        2.40605       -1.37057
O         -0.41908        1.44473       -1.00756
C         -0.23288        3.62236       -2.01097
H          0.51088        4.08611       -2.67076
H         -1.14735        3.36917       -2.56197
H         -0.49272        4.34341       -1.22041
C         -5.54602        0.57908        0.83881
H         -5.75086        0.11985        1.81804
H         -5.27996        1.63525        0.99839
H         -6.42584        0.50135        0.19016
