34
Benzofuran_H9_deriv1_Int1_Sub24.log	Energy: -967571.1150160
C          0.23487       -1.10419        1.16206
C         -1.08609       -0.72673        1.44684
C          0.46124       -1.66599       -0.12376
C         -2.13362       -0.85687        0.53270
O         -1.51868       -0.17245        2.59554
C         -0.62929       -1.84547       -1.03645
H          1.40784       -2.16442       -0.33984
C         -1.90827       -1.44424       -0.73337
C         -3.28046       -0.31083        1.20538
C         -2.83943        0.08130        2.43896
Cl        -0.28323       -2.58104       -2.56110
H         -2.71857       -1.58146       -1.44995
O         -4.53576       -0.21290        0.73193
H         -3.35678        0.52783        3.28359
O          2.95613       -0.23004       -0.08477
C          3.51301       -0.31248        1.09335
O          2.93053       -0.19519        2.15708
C          5.00043       -0.56467        1.00463
H          5.21728       -1.35818        0.27653
H          5.49580        0.35066        0.64744
H          5.39017       -0.82860        1.99482
H          1.02459       -1.07399        1.92028
Pd         1.11069        0.42762       -0.26240
O          1.35523        2.42734       -0.93276
C          0.10093        2.51805       -1.03052
O         -0.59053        1.49015       -0.72970
C         -0.56049        3.78583       -1.44819
H         -1.55546        3.58050       -1.86218
H         -0.67310        4.43054       -0.56281
H          0.06681        4.31548       -2.17643
C         -4.71207        0.78247       -0.25600
H         -4.54333        1.78957        0.16269
H         -4.02424        0.64205       -1.10704
H         -5.74793        0.70495       -0.61023
