37
Benzothiophene_H9_deriv1_Int1_Sub24.log	Energy: -906535.2052660
C         -0.29849       -1.54779        0.22732
C          1.01541       -1.46954       -0.28791
C         -0.52476       -1.03700        1.53054
C          2.04741       -0.88381        0.45724
S          1.55982       -2.00192       -1.84207
C          0.54429       -0.49174        2.32311
H         -1.48187       -1.24829        2.01408
C          1.80239       -0.41614        1.77287
C          3.27706       -0.85865       -0.28113
C          3.15536       -1.43026       -1.51943
C          0.24563       -0.02259        3.71358
H          2.63525        0.00009        2.34477
O          4.41490       -0.31569        0.20997
H          3.94580       -1.54231       -2.26003
O         -3.01173       -0.15316        0.38388
C         -3.52058       -0.96549       -0.50297
O         -2.89555       -1.50392       -1.39949
C         -5.00542       -1.17057       -0.30820
H         -5.23553       -1.36704        0.74800
H         -5.53295       -0.24731       -0.59121
H         -5.35072       -1.99714       -0.94034
H         -1.08097       -2.08924       -0.31146
Pd        -1.17808        0.51193        0.10791
O         -1.45155        2.40825       -0.81310
C         -0.20231        2.57921       -0.77115
O          0.50461        1.65509       -0.25320
C          0.43458        3.82813       -1.27781
H         -0.19483        4.28897       -2.04900
H          0.53673        4.53682       -0.44142
H          1.43691        3.60968       -1.66803
H         -0.15880       -0.84134        4.33010
H         -0.51183        0.77717        3.70430
H          1.14609        0.36474        4.20896
C          4.51739        1.07998        0.00975
H          4.63885        1.31925       -1.06125
H          3.62404        1.60876        0.38454
H          5.40505        1.42229        0.55791
