32
Benzooxazole_H10_Int1_Sub17.log	Energy: -828899.5170761
C         -0.30004       -0.60871        1.71464
C          0.17497       -1.34390        0.58922
C          0.51592        0.35094        2.35865
C          1.47835       -1.14137        0.07731
H         -0.41653       -2.17799        0.20847
C          1.75940        0.53848        1.81021
H          0.16270        0.90785        3.22638
C          2.25829       -0.17438        0.69080
C          1.97456       -1.90804       -1.11956
O          2.73012        1.40773        2.18493
N          3.53177        0.28820        0.41251
C          3.73590        1.19024        1.30381
H          4.62793        1.80216        1.43765
O         -2.56617       -0.94443       -0.30234
C         -3.46518       -0.92982        0.64562
O         -3.36269       -0.30708        1.68819
C         -4.67158       -1.77318        0.30928
H         -4.36353       -2.75553       -0.07432
H         -5.30413       -1.88456        1.19779
H         -5.24299       -1.27596       -0.48880
H         -1.26563       -0.85998        2.16026
Pd        -1.08791        0.34563       -0.18124
O         -1.66563        1.93710       -1.45728
C         -0.54660        2.47753       -1.24249
O          0.25116        1.87442       -0.44918
C         -0.14382        3.74705       -1.90608
H          0.50672        4.33117       -1.24261
H          0.42678        3.50005       -2.81478
H         -1.03133        4.32304       -2.19515
F          1.11082       -2.86434       -1.46977
F          3.14697       -2.48930       -0.87628
F          2.13181       -1.10389       -2.17268
