30
Benzofuran_H13_Int1_Sub18.log	Energy: -895765.6563963
C          0.19517       -1.52232        0.25088
C         -1.12816       -1.29671        0.79618
C          0.07251       -1.25195       -1.12316
C         -1.91870       -0.91560       -0.29728
C         -1.68166       -1.35836        2.07831
H          0.71483       -1.52846       -1.95821
O         -1.20546       -0.91585       -1.44846
C         -3.25923       -0.57125       -0.15801
C         -3.02522       -1.03383        2.22031
H         -1.07188       -1.64645        2.93605
C         -3.80486       -0.64368        1.12055
Cl        -4.18570       -0.07688       -1.52043
H         -3.49259       -1.07406        3.20622
H         -4.85694       -0.38559        1.25278
O          2.79267       -0.49479       -0.76966
C          3.46719       -1.20619        0.09306
O          3.06136       -1.54503        1.19148
C          4.84206       -1.57316       -0.41463
H          4.78730       -1.94940       -1.44539
H          5.46885       -0.66893       -0.43065
H          5.29459       -2.32052        0.24759
H          1.04265       -2.00160        0.74931
Pd         1.12305        0.39552       -0.20375
O          1.65317        2.43744        0.14042
C          0.43260        2.67436        0.35170
O         -0.38334        1.69715        0.26645
C         -0.05928        4.04569        0.66024
H         -1.02974        3.99877        1.16913
H          0.68066        4.58167        1.26840
H         -0.18267        4.59429       -0.28630
