45
Benzothiophene_H13_deriv1_Int1_Sub20.log	Energy: -1120056.0726156
C         -0.64362        0.61555       -1.13522
C          0.69495        0.05117       -1.04703
C         -1.49558       -0.17852       -1.92114
C          0.79304       -1.12936       -1.80537
C          1.80591        0.52604       -0.30180
H         -2.44176        0.15347       -2.35142
S         -0.68924       -1.55601       -2.61840
C          1.98166       -1.84594       -1.84171
C          3.03711       -0.16301       -0.36297
C          1.44962        1.76906        0.50311
C          3.06222       -1.34335       -1.14293
H          2.07152       -2.77305       -2.41061
C          4.35834        0.24455        0.33030
H          3.98969       -1.90661       -1.20200
O         -3.58825        0.61428       -0.15311
C         -3.56044        1.91856       -0.08543
O         -2.55790        2.60767       -0.04522
C         -4.95075        2.51217       -0.04971
H         -5.59350        2.04345       -0.80733
H         -5.39999        2.30464        0.93316
H         -4.89428        3.59614       -0.20410
H         -0.93490        1.62560       -0.82606
Pd        -1.99707       -0.50504        0.15534
O         -2.44518       -1.49575        1.99308
C         -1.36885       -2.14029        1.86466
O         -0.65723       -1.90605        0.83305
C         -0.94498       -3.16468        2.85994
H         -1.45419       -4.11268        2.62742
H          0.13890       -3.32421        2.80607
H         -1.24826       -2.85536        3.86838
F          2.39482        2.25888        1.30328
F          0.40052        1.51387        1.29418
F          1.10161        2.76746       -0.31797
C          4.22814        0.12181        1.85917
H          5.17947        0.40631        2.33566
H          3.44085        0.74604        2.28933
H          4.01814       -0.92424        2.13090
C          5.51926       -0.68883       -0.05276
H          5.71570       -0.69473       -1.13541
H          6.43179       -0.32567        0.44226
H          5.36117       -1.72420        0.28405
C          4.80266        1.64287       -0.13537
H          5.74087        1.91958        0.37041
H          4.99947        1.62914       -1.21850
H          4.07615        2.43448        0.06440
