30
Benzofuran_H13_deriv1_Int1_Sub26.log	Energy: -1184081.8745676
C          0.27911       -1.33321        0.41704
C         -1.13167       -1.11432        0.65908
C          0.40924       -1.26144       -0.98740
C         -1.71863       -0.92603       -0.60009
C         -1.92701       -1.03058        1.80514
Cl         1.58675       -1.94282       -2.01050
O         -0.78992       -1.03906       -1.59010
C         -3.06132       -0.64681       -0.78924
C         -3.28186       -0.77007        1.65152
H         -1.49243       -1.16292        2.79746
C         -3.83028       -0.58087        0.37099
H         -3.49082       -0.48926       -1.77765
H         -3.93851       -0.70217        2.51961
Cl        -5.52130       -0.25121        0.23199
O          2.97244       -0.11288        0.08841
C          3.39316       -0.72009        1.16174
O          2.69205       -1.08535        2.09112
C          4.88735       -0.94531        1.13577
H          5.16763       -1.48962        0.22269
H          5.40431        0.02478        1.10700
H          5.19297       -1.50855        2.02510
H          1.02302       -1.71318        1.12386
Pd         1.13762        0.58542       -0.08231
O          1.41178        2.70065       -0.01715
C          0.17483        2.83115       -0.22693
O         -0.51828        1.76810       -0.35682
C         -0.46278        4.17098       -0.35099
H         -1.53799        4.10355       -0.14489
H          0.02570        4.88334        0.32612
H         -0.32227        4.53126       -1.38183
