35
Benzofuran_H13_Int1_Sub23.log	Energy: -666807.7122216
C          0.26839       -1.54627        0.19923
C         -1.05822       -1.36750        0.75148
C          0.14668       -1.24264       -1.16981
C         -1.85414       -0.98272       -0.32633
C         -1.61270       -1.47438        2.03569
H          0.79743       -1.49197       -2.00696
O         -1.13812       -0.93249       -1.48784
C         -3.21260       -0.64826       -0.22756
C         -2.96154       -1.17499        2.15851
H         -1.00585       -1.77019        2.89190
C         -3.74564       -0.76722        1.06539
N         -3.91646       -0.26205       -1.33292
H         -3.44049       -1.24449        3.13791
H         -4.79761       -0.53073        1.23037
O          2.84885       -0.44950       -0.78962
C          3.54041       -1.14438        0.07258
O          3.14742       -1.48745        1.17389
C          4.92035       -1.48686       -0.44077
H          4.86676       -1.87502       -1.46727
H          5.52784       -0.56990       -0.47036
H          5.39305       -2.21800        0.22552
H          1.12715       -2.01364        0.68810
Pd         1.16111        0.40596       -0.22045
O          1.65988        2.44978        0.18925
C          0.43351        2.66267        0.38896
O         -0.37134        1.68338        0.25147
C         -0.07787        4.01628        0.74718
H         -1.06359        3.93975        1.22200
H          0.63817        4.52399        1.40627
H         -0.17118        4.61256       -0.17355
H         -3.36428       -0.02999       -2.14619
C         -5.25239        0.24986       -1.25746
H         -5.59475        0.51654       -2.26580
H         -5.33732        1.14873       -0.61646
H         -5.95030       -0.50860       -0.86384
