30
Benzothiophene_H9_Int1_Sub18.log	Energy: -1098387.8753514
C         -0.09520       -1.34175        0.65864
C          1.25219       -0.97255        0.43882
C         -0.71824       -0.87106        1.84237
C          1.96168       -0.16126        1.34349
S          2.21474       -1.40631       -0.93220
C          0.01076       -0.06976        2.77334
H         -1.68894       -1.28076        2.12916
C          1.31302        0.28424        2.52593
C          3.29640        0.09506        0.90482
C          3.55786       -0.51085       -0.29033
H         -0.48569        0.25702        3.68876
H          1.86262        0.90825        3.23401
H          4.02663        0.69809        1.44322
Cl         5.02638       -0.46186       -1.15882
O         -3.02433       -0.66563        0.11779
C         -3.11439       -1.62533       -0.76236
O         -2.18998       -2.04916       -1.43464
C         -4.51953       -2.16921       -0.87838
H         -4.95570       -2.33675        0.11589
H         -5.14756       -1.42404       -1.38948
H         -4.51003       -3.09849       -1.46014
H         -0.59151       -2.06356        0.00291
Pd        -1.38216        0.42297        0.17254
O         -1.87557        2.14998       -0.95609
C         -0.73947        2.62287       -0.67365
O          0.02611        1.91684        0.05963
C         -0.31252        3.96791       -1.15055
H         -0.70759        4.15084       -2.15816
H         -0.73353        4.73064       -0.47749
H          0.78128        4.04856       -1.13668
