53
Benzoisoxazole_H9_deriv1_Int1_Sub4.log	Energy: -814684.2500136
C         -0.48177       -0.43924        1.30645
C         -0.23834       -1.66166        0.62927
C          0.54548        0.53279        1.53416
C          1.08535       -1.81764        0.16771
C         -1.29900       -2.74596        0.47211
C          1.84806        0.38204        1.08837
H          0.23277        1.43105        2.06544
C          2.06049       -0.83374        0.40648
C          1.81736       -2.79094       -0.59274
C          2.92838        1.44344        1.23604
O          3.21408       -1.21713       -0.15238
H          1.48522       -3.73747       -1.01561
N          3.05216       -2.43549       -0.76978
O         -2.83160        0.83461        0.16026
C         -2.94933        1.71884        1.11350
O         -2.01423        2.26449        1.67308
C         -4.39098        2.00298        1.46470
H         -4.91839        1.06653        1.69634
H         -4.43640        2.68753        2.31976
H         -4.89630        2.45382        0.59807
H         -1.40724       -0.31291        1.86530
Pd        -1.03193        0.53899       -0.58364
O         -1.14808        1.45675       -2.50102
C          0.03420        1.08004       -2.72045
O          0.61140        0.40222       -1.80665
C          0.75959        1.43459       -3.97154
H          0.04831        1.62264       -4.78508
H          1.33708        2.35473       -3.79141
H          1.46500        0.63743       -4.23909
C          2.41233        2.64154        2.03213
H          3.21138        3.39243        2.12244
H          1.55422        3.12355        1.53986
H          2.10713        2.35536        3.05026
C          4.14388        0.84950        1.96238
H          4.57166       -0.00040        1.41329
H          4.92800        1.61544        2.06742
H          3.86764        0.50634        2.97137
C          3.33330        1.92154       -0.16806
H          4.09732        2.71080       -0.08964
H          3.74602        1.10173       -0.77188
H          2.46189        2.33011       -0.70097
C         -1.57486       -2.97825       -1.02164
H         -2.29756       -3.79913       -1.14707
H         -2.00146       -2.07240       -1.47978
H         -0.66614       -3.23782       -1.58227
C         -0.78303       -4.03946        1.12465
H         -0.55838       -3.87925        2.19003
H         -1.55434       -4.82161        1.05447
H          0.12725       -4.42347        0.64462
C         -2.61486       -2.35926        1.15046
H         -3.35456       -3.15666        0.98519
H         -2.49182       -2.24561        2.23861
H         -3.02460       -1.42226        0.74594
