45
Benzoisoxazole_H10_Int1_Sub19.log	Energy: -764634.5679522
C          0.74429        0.67540       -1.51698
C         -0.60818        0.23136       -1.59056
C          1.14336        1.70471       -0.62406
C         -1.60497        0.76553       -0.79862
H         -0.83467       -0.56845       -2.29538
C          0.09051        2.27441        0.13380
H          2.12206        2.18235       -0.69235
C         -1.22068        1.82346        0.07360
C         -3.02188        0.26392       -0.77644
O          0.19057        3.27836        1.00712
C         -1.87607        2.67374        1.01804
N         -1.04380        3.52058        1.55512
H         -2.92218        2.69822        1.32185
O          3.48591        0.08320       -0.37418
C          3.83527       -0.62962       -1.41246
O          3.07217       -1.30953       -2.07524
C          5.31300       -0.53044       -1.70910
H          5.52394       -0.97516       -2.68877
H          5.64676        0.51579       -1.67708
H          5.86991       -1.07495       -0.93184
H          1.45749        0.28147       -2.24487
Pd         1.67092       -0.19909        0.33385
O          1.89811       -1.70314        1.81483
C          0.67303       -1.57969        2.08874
O          0.00782       -0.71179        1.43287
C          0.00673       -2.43418        3.11049
H          0.72730       -2.73347        3.88173
H         -0.84626       -1.90404        3.55252
H         -0.36740       -3.34394        2.61572
H         -3.67737        1.15227       -0.69416
C         -3.26352       -0.59406        0.47961
H         -2.96851       -0.03616        1.38170
H         -2.58585       -1.46377        0.43522
C         -4.71398       -1.05143        0.57177
H         -4.84880       -1.69261        1.45781
H         -5.36300       -0.17025        0.72683
C         -5.15642       -1.78407       -0.68984
H         -6.22042       -2.06148       -0.62055
H         -4.59304       -2.73092       -0.77465
C         -4.90532       -0.94220       -1.93596
H         -5.55395       -0.04786       -1.91076
H         -5.18664       -1.50172       -2.84218
C         -3.44791       -0.50344       -2.02646
H         -2.81456       -1.40130       -2.13588
H         -3.28042        0.11291       -2.92449
