32
Benzoisoxazole_H8_Int1_Sub30.log	Energy: -642129.9373001
C          0.03419       -1.33062        1.15289
C          0.67185       -1.54089       -0.10227
C          0.82853       -0.76519        2.17192
C          2.02789       -1.19307       -0.26805
C          0.36029       -2.16673       -1.36355
C          2.15697       -0.40927        1.95048
H          0.38178       -0.61013        3.15539
C          2.81101       -0.61310        0.72294
O          2.42672       -1.53967       -1.50383
H         -0.58946       -2.58251       -1.69591
N          1.38272       -2.14847       -2.16091
H          2.72571        0.04391        2.76606
C          4.22888       -0.22059        0.47225
O         -2.19433       -0.62704       -0.57617
C         -3.10947       -0.76876        0.34685
O         -2.95822       -0.45947        1.51492
C         -4.39235       -1.35718       -0.18975
H         -5.04586       -1.64211        0.64322
H         -4.89840       -0.60250       -0.81034
H         -4.18529       -2.22300       -0.83381
H         -0.94930       -1.73591        1.39146
Pd        -0.61043        0.42740       -0.06177
O         -1.03471        2.37890       -0.75113
C          0.12021        2.73182       -0.38442
O          0.85968        1.84383        0.15373
C          0.61912        4.11832       -0.59741
H         -0.20923        4.83320       -0.51293
H          1.41524        4.35198        0.12027
H          1.03081        4.19098       -1.61598
H          4.26290        0.71508       -0.10956
H          4.75662       -0.98581       -0.11517
H          4.76941       -0.05529        1.41355
