34
Benzoisoxazole_H9_Int1_Sub31.log	Energy: -676847.8026376
C         -0.21402       -0.74186        1.71198
C          0.47333       -1.29117        0.59923
C          0.44251        0.17695        2.59280
C          1.81791       -0.88573        0.39230
H          0.02958       -2.12064        0.04850
C          1.74138        0.57018        2.38605
H         -0.11813        0.56281        3.44618
C          2.40295        0.02744        1.26530
C          2.86827       -1.12274       -0.56637
H          2.25195        1.27412        3.04413
O          3.64612        0.29267        0.88842
N          2.85223       -1.93954       -1.64986
N          3.93765       -0.41795       -0.26243
O         -2.15434       -1.07504       -0.54554
C         -3.18918       -1.19733        0.24387
O         -3.31626       -0.62944        1.31342
C         -4.23804       -2.12831       -0.31865
H         -3.77899       -3.06266       -0.67038
H         -4.99735       -2.33488        0.44471
H         -4.71209       -1.64984       -1.18869
H         -1.18952       -1.13430        2.00740
Pd        -0.85029        0.34056       -0.11113
O         -1.39840        1.98053       -1.34678
C         -0.39333        2.60578       -0.90826
O          0.34932        2.00618       -0.06346
C         -0.09294        4.00311       -1.32617
H         -0.50601        4.19809       -2.32352
H         -0.56908        4.69203       -0.61135
H          0.98982        4.18066       -1.30495
H          3.66863       -1.86277       -2.24172
C          1.64064       -2.45916       -2.22661
H          1.88161       -2.93345       -3.18633
H          0.88134       -1.67900       -2.41602
H          1.18402       -3.23560       -1.59099
