36
Benzothiophene_H9_deriv1_Int1_Sub30.log	Energy: -859372.3108632
C         -0.17023       -0.65900       -1.34777
C         -1.37986       -1.21182       -0.86744
C         -0.10836        0.74726       -1.50302
C         -2.48154       -0.39879       -0.55207
S         -1.70981       -2.88264       -0.57316
C         -1.23572        1.58945       -1.20409
H          0.73595        1.17735       -2.04819
C         -2.38784        1.00841       -0.73052
C         -3.58568       -1.17114       -0.07512
C         -3.30633       -2.50731       -0.04065
C         -1.07852        3.07003       -1.42854
H         -3.25503        1.62264       -0.48197
H         -4.54277       -0.74553        0.22821
H         -3.96796       -3.31343        0.27547
O          2.60980        0.40385       -0.63208
C          3.17728       -0.68888       -1.06524
O          2.66141       -1.79295       -1.07055
C          4.58279       -0.44633       -1.56636
H          4.61375        0.43172       -2.22609
H          5.23571       -0.23206       -0.70696
H          4.94825       -1.33749       -2.09015
H          0.63935       -1.30302       -1.70335
Pd         0.92241        0.26306        0.37892
O          1.53371        0.33268        2.41211
C          0.31638        0.31411        2.74635
O         -0.55111        0.27782        1.81528
C         -0.10119        0.36323        4.17609
H          0.61339       -0.19506        4.79452
H         -0.09249        1.41211        4.51044
H         -1.11637       -0.03592        4.29113
H         -0.82244        3.22921       -2.49136
H         -0.18760        3.40322       -0.86835
C         -2.26919        3.93181       -1.05374
H         -2.05352        4.99269       -1.24577
H         -2.51978        3.83170        0.01372
H         -3.16479        3.66603       -1.63652
