33
Benzofuran_H9_deriv1_Int1_Sub9.log	Energy: -1107150.7766374
C          0.52536       -0.30657        1.63401
C         -0.52159        0.58367        1.90084
C          0.23776       -1.33733        0.70552
C         -1.78445        0.51936        1.29850
O         -0.45131        1.62958        2.74442
C         -1.05713       -1.43390        0.10192
H          0.91539       -2.18635        0.60084
C         -2.05971       -0.51785        0.36360
C         -2.51182        1.63118        1.84220
C         -1.65099        2.24610        2.69894
Cl        -1.28159       -2.74860       -0.99048
C         -3.39425       -0.61117       -0.34141
H         -3.53131        1.93175        1.62705
H         -1.75835        3.11891        3.33847
O          2.93337       -0.99907       -0.26158
C          3.73840       -0.87639        0.75885
O          3.51140       -0.21790        1.75914
C          5.02486       -1.64487        0.56730
H          4.82200       -2.65332        0.18194
H          5.63961       -1.12579       -0.18338
H          5.57146       -1.69330        1.51644
H          1.47360       -0.28032        2.18253
Pd         1.35654        0.16489       -0.43414
O          1.92286        1.54961       -1.93447
C          0.76005        2.03725       -1.88155
O         -0.05808        1.51059       -1.05636
C          0.35377        3.19946       -2.71728
H         -0.71692        3.14116       -2.95102
H          0.53194        4.12255       -2.14415
H          0.95647        3.23676       -3.63302
F         -4.22092        0.36522        0.04423
F         -4.00720       -1.76612       -0.08497
F         -3.25469       -0.50874       -1.66205
