37
Benzene_H10_Int1_Sub2.log	Energy: -781845.8318798
C         -0.83853       -1.78270       -0.09781
C          0.52951       -1.55824       -0.38009
C         -1.35867       -1.45801        1.18013
C          1.35967       -0.98339        0.57018
H          0.91731       -1.80249       -1.37106
C         -0.48605       -0.92245        2.15929
H         -2.37871       -1.72999        1.45952
C          0.83366       -0.68040        1.85248
C          2.76590       -0.65683        0.25142
H         -0.87439       -0.70105        3.15505
H          1.49943       -0.25811        2.60812
O         -3.40983       -0.73059       -0.89759
C         -4.41019       -0.86492       -0.06707
O         -4.36388       -0.60020        1.12074
C         -5.65706       -1.38304       -0.74438
H         -6.39713       -1.66854        0.01251
H         -6.07299       -0.58816       -1.38154
H         -5.42058       -2.23450       -1.39718
H         -1.46009       -2.32606       -0.81261
Pd        -1.82764        0.22920       -0.23017
O         -2.13564        2.22772       -0.85616
C         -1.00511        2.52668       -0.38102
O         -0.32984        1.59053        0.15872
C         -0.48381        3.92127       -0.41396
H         -0.75691        4.42047        0.52863
H          0.61084        3.91475       -0.49449
H         -0.93605        4.47617       -1.24509
C          3.56667       -1.55715       -0.46216
C          3.29595        0.57614        0.65311
C          5.42967        0.00568       -0.36835
C          4.61184        0.88223        0.33424
C          4.87875       -1.20980       -0.75514
H          3.19260       -2.53459       -0.76927
H          6.46180        0.26163       -0.60778
H          2.68050        1.31260        1.17109
F          5.63953       -2.07131       -1.42180
F          5.10782        2.05846        0.70411
