46
Benzothiophene_H9_Int1_Sub19.log	Energy: -957223.7934791
C         -1.03222       -1.27437        0.85818
C          0.28883       -0.77679        0.93921
C         -1.95941       -0.83839        1.83981
C          0.68678        0.12411        1.94377
S          1.58841       -1.13753       -0.14026
C         -1.54760        0.05551        2.87492
H         -2.92817       -1.33695        1.91272
C         -0.26086        0.53128        2.91961
C          2.05884        0.49632        1.80543
C          2.67605       -0.09678        0.73841
H         -2.27428        0.35442        3.63251
H          0.04576        1.22521        3.70565
H          2.57296        1.18670        2.47594
C          4.09317        0.06046        0.28729
O         -3.79951       -0.92178       -0.37826
C         -3.59059       -1.89685       -1.21992
O         -2.50167       -2.22486       -1.65839
C         -4.87059       -2.59590       -1.61821
H         -5.48778       -2.80964       -0.73475
H         -5.45346       -1.92767       -2.26981
H         -4.63515       -3.51986       -2.15954
H         -1.28936       -2.06012        0.14195
Pd        -2.32915        0.33629        0.00038
O         -2.70420        1.97658       -1.29768
C         -1.71809        2.57083       -0.78004
O         -1.08420        1.96880        0.14518
C         -1.32034        3.94159       -1.20938
H         -1.47863        4.05662       -2.28947
H         -1.96100        4.67291       -0.69297
H         -0.27450        4.13676       -0.94237
H          4.56734        0.75282        1.00645
C          4.19053        0.69619       -1.10702
H          3.65456        1.65853       -1.11121
H          3.66531        0.04631       -1.83022
C          5.64004        0.87663       -1.54131
H          5.67744        1.30553       -2.55547
H          6.12893        1.61172       -0.87634
C          6.40928       -0.43878       -1.48829
H          7.46270       -0.27945       -1.76915
H          5.98944       -1.13406       -2.23756
C          6.31809       -1.07813       -0.10713
H          6.83934       -0.43667        0.62659
H          6.84068       -2.04797       -0.09484
C          4.87010       -1.26289        0.33046
H          4.37173       -1.98849       -0.33775
H          4.81667       -1.68937        1.34468
