38
Benzothiophene_H13_deriv1_Int1_Sub23.log	Energy: -1080827.7169810
C          0.33426        0.64634        1.12827
C         -1.03789        0.19296        0.97857
C          1.08058       -0.22049        1.94759
C         -1.27213       -0.97891        1.71851
C         -2.05741        0.75829        0.18303
H          2.03661        0.02376        2.41324
S          0.13483       -1.52556        2.59772
C         -2.51849       -1.60285        1.67675
C         -3.33018        0.14000        0.14189
C         -1.66253        1.96908       -0.62054
C         -3.51972       -1.04203        0.91308
H         -2.70884       -2.51952        2.23837
N         -4.37570        0.61207       -0.59419
H         -4.49361       -1.52936        0.89337
O          3.28145        0.44832        0.27360
C          3.34258        1.74600        0.13775
O          2.39210        2.48864       -0.02595
C          4.76569        2.25468        0.19567
H          5.30899        1.79547        1.03285
H          5.28510        1.96313       -0.72959
H          4.76476        3.34737        0.28562
H          0.71052        1.63156        0.83044
Pd         1.63993       -0.56942       -0.12062
O          2.11240       -1.59690       -1.93098
C          0.99072       -2.16894       -1.85460
O          0.24497       -1.88320       -0.86177
C          0.55268       -3.16997       -2.86798
H          0.99888       -4.14427       -2.61569
H         -0.53965       -3.26893       -2.86017
H          0.91493       -2.87911       -3.86244
F         -2.67804        2.51266       -1.32259
F         -0.70992        1.67569       -1.51009
F         -1.18752        2.94541        0.15716
H         -4.22936        1.45013       -1.13127
C         -5.66575       -0.00813       -0.65489
H         -6.30643        0.57934       -1.32497
H         -6.16494       -0.04872        0.33024
H         -5.62348       -1.03776       -1.05403
