29
Benzoisoxazole_H10_Int1_Sub26.log	Energy: -905799.1037460
C          0.40089       -1.47074        1.03502
C         -0.50750       -1.02625        2.04515
C         -0.00118       -1.59539       -0.32156
C         -1.80755       -0.69810        1.74360
H         -0.14081       -0.95257        3.07001
C         -1.35634       -1.27542       -0.58226
H          0.61487       -2.11072       -1.06064
C         -2.22513       -0.82530        0.40051
H         -2.50517       -0.35039        2.50747
O         -1.98220       -1.32556       -1.76208
C         -3.42515       -0.60971       -0.34597
N         -3.27882       -0.90555       -1.60658
Cl        -4.90493       -0.03859        0.26539
O          2.66319       -0.66808       -0.80235
C          3.57371       -0.99434        0.07754
O          3.43054       -0.91073        1.28434
C          4.84801       -1.48602       -0.56591
H          5.49593       -1.93682        0.19497
H          4.62794       -2.20591       -1.36601
H          5.36528       -0.63182       -1.02806
H          1.38505       -1.83065        1.34540
Pd         1.08602        0.30876       -0.14408
O          1.57506        2.34333       -0.43362
C          0.41504        2.65172       -0.03926
O         -0.36222        1.69715        0.29147
C         -0.02986        4.06955        0.03939
H          0.06502        4.53377       -0.95276
H         -1.06733        4.12992        0.38827
H          0.63326        4.61825        0.72381
