35
Benzoisoxazole_H8_deriv1_Int1_Sub25.log	Energy: -853526.8310433
C          0.69882        1.05083        1.31706
C          0.89339        1.80798        0.12875
C         -0.62990        0.82009        1.71858
C         -0.23205        2.32455       -0.55738
C          1.99143        2.41278       -0.58824
C         -1.72222        1.29780        0.98730
H         -0.80161        0.24404        2.62968
C         -1.53296        2.07885       -0.16580
O          0.18539        3.08914       -1.57618
H          3.05974        2.28877       -0.41910
N          1.56338        3.13529       -1.57416
C         -3.11650        0.94459        1.42008
H         -2.37599        2.47676       -0.73181
O          2.97674       -0.39920        0.10275
C          3.33874       -0.93949        1.23673
O          2.56388       -1.28089        2.11266
C          4.83458       -1.10723        1.35222
H          5.10143       -1.34784        2.38808
H          5.15080       -1.93042        0.69394
H          5.35785       -0.20157        1.01607
H          1.51900        0.76130        1.97534
Pd         1.05155       -0.44748       -0.32450
O          0.75647       -2.22934       -1.43443
C         -0.45174       -1.89453       -1.58109
O         -0.80596       -0.77692       -1.07769
C         -1.43268       -2.73319       -2.31880
H         -1.14820       -3.79109       -2.26120
H         -2.43761       -2.56801       -1.90997
H         -1.43325       -2.42833       -3.37673
H         -3.82434        1.75222        1.18477
H         -3.15957        0.77009        2.50427
C         -3.65398       -0.30859        0.75968
F         -3.74180       -0.17651       -0.56574
F         -4.88224       -0.57633        1.21599
F         -2.89207       -1.37359        1.01434
