41
Benzoisoxazole_H10_Int1_Sub20.log	Energy: -716083.0699940
C         -0.28718       -1.39629       -0.85115
C          0.89853       -0.86667       -1.43802
C         -0.35806       -1.68831        0.53339
C          2.04409       -0.60045       -0.71357
H          0.86372       -0.65620       -2.50548
C          0.84308       -1.46128        1.24727
H         -1.17960       -2.26058        0.96705
C          1.99441       -0.92795        0.67817
C          3.28400        0.02971       -1.33335
O          1.03058       -1.69313        2.54746
C          2.87393       -0.86875        1.80903
N          2.30270       -1.31943        2.88913
H          3.90147       -0.51635        1.87854
O         -3.02618       -0.70725        0.24860
C         -3.60587       -0.89337       -0.90798
O         -3.08647       -0.67305       -1.98761
C         -5.01789       -1.41108       -0.76816
H         -5.38768       -1.74425       -1.74505
H         -5.06219       -2.22876       -0.03581
H         -5.65874       -0.59977       -0.39146
H         -1.11134       -1.67532       -1.51201
Pd        -1.31748        0.26969        0.24544
O         -1.86608        2.29459        0.55227
C         -0.64145        2.59657        0.57691
O          0.20093        1.64966        0.43733
C         -0.18291        4.00561        0.72605
H         -0.93680        4.59498        1.26229
H          0.78373        4.03705        1.24479
H         -0.05129        4.43949       -0.27737
C          3.09471        0.30892       -2.82465
H          4.00965        0.76535       -3.23063
H          2.90371       -0.61275       -3.39482
H          2.26512        1.00852       -3.00632
C          3.55651        1.36861       -0.62765
H          3.77647        1.24102        0.44109
H          4.42097        1.86818       -1.09185
H          2.67974        2.02764       -0.70362
C          4.48149       -0.91885       -1.17052
H          5.38455       -0.46154       -1.60355
H          4.69747       -1.14997       -0.11853
H          4.29940       -1.87164       -1.69042
