35
Benzo13dioxol_H9_Int1_Sub23.log	Energy: -690081.1201357
C          0.12932       -0.93659       -1.75947
C          1.40754       -0.56366       -2.14646
C         -0.16590       -1.39835       -0.43384
C          2.39271       -0.69435       -1.16711
H          1.63358       -0.16595       -3.13452
C          0.89674       -1.61054        0.52408
H         -1.09541       -1.95529       -0.30799
C          2.15176       -1.19479        0.10172
O          3.69745       -0.37313       -1.26678
N          0.68450       -2.14123        1.74801
O          3.31884       -1.22141        0.81710
C          4.22879       -0.46468        0.04740
H          5.20456       -0.97099        0.01523
H          4.32537        0.55596        0.46612
O         -2.62139       -0.06853        0.38480
C         -3.33281       -0.58940       -0.57347
O         -2.92166       -0.88522       -1.68237
C         -4.77740       -0.79344       -0.17025
H         -4.84112       -1.26956        0.81808
H         -5.26835        0.18806       -0.08979
H         -5.29330       -1.39858       -0.92524
H         -0.71889       -0.89509       -2.44573
Pd        -0.78623        0.58493        0.07232
O         -0.88732        2.66299        0.63330
C          0.35171        2.73501        0.43436
O          0.96092        1.68030        0.05374
C          1.11264        3.99938        0.66149
H          0.44751        4.86591        0.56167
H          1.52029        3.98884        1.68423
H          1.95300        4.06753       -0.04136
H          1.47141       -2.14194        2.38158
C         -0.62749       -2.42646        2.26504
H         -0.54946       -2.65236        3.33568
H         -1.08501       -3.29918        1.76817
H         -1.30950       -1.56799        2.13163
