33
Benzofuran_H9_Int1_Sub17.log	Energy: -818833.0433884
C         -0.30353       -1.30402        0.72026
C          1.02155       -0.83055        0.71111
C         -1.08834       -0.89289        1.83045
C          1.55981        0.00197        1.69574
O          1.93699       -1.08469       -0.24454
C         -0.54233       -0.05746        2.85476
H         -2.05958       -1.36449        1.99324
C          0.75442        0.39433        2.79258
C          2.90729        0.26056        1.28197
C          3.05719       -0.42170        0.11465
H         -1.17940        0.21471        3.69814
H          1.16017        1.04186        3.57220
H          3.66149        0.86937        1.77349
C          4.22744       -0.54697       -0.80586
O         -3.24282       -0.73495       -0.08330
C         -3.22775       -1.76605       -0.88506
O         -2.23196       -2.23916       -1.40338
C         -4.61145       -2.32418       -1.12470
H         -5.17248       -2.39549       -0.18302
H         -5.16226       -1.63501       -1.78249
H         -4.53539       -3.30539       -1.60796
H         -0.65938       -2.04281       -0.00601
Pd        -1.63774        0.38909        0.10156
O         -2.09050        2.08957       -1.07996
C         -0.99196        2.59614       -0.71988
O         -0.27215        1.92342        0.08941
C         -0.52651        3.91077       -1.24098
H          0.14258        4.39270       -0.51717
H          0.03564        3.73784       -2.17184
H         -1.38623        4.55190       -1.47249
F          5.25293        0.15075       -0.31960
F          3.94503       -0.08196       -2.02163
F          4.61089       -1.81509       -0.94146
