33
Benzofuran_H9_Int1_Sub22.log	Energy: -632096.6975933
C          0.26907       -1.47754        0.30773
C          1.61079       -1.14187        0.07230
C         -0.22947       -1.15492        1.60092
C          2.43608       -0.51688        1.01202
O          2.28432       -1.34805       -1.07740
C          0.61097       -0.53583        2.57715
H         -1.19607       -1.55736        1.91049
C          1.91708       -0.20999        2.29280
C          3.69560       -0.34559        0.35302
C          3.54269       -0.86416       -0.90166
H          0.19495       -0.32711        3.56452
H          2.54639        0.27543        3.04155
H          4.60039        0.10728        0.75117
C          4.45981       -0.99206       -2.05404
O         -2.68940       -0.54812        0.23274
C         -2.94984       -1.40605       -0.71552
O         -2.14347       -1.82553       -1.52705
C         -4.39986       -1.83484       -0.71661
H         -4.73342       -2.08073        0.30089
H         -5.01898       -0.99633       -1.06944
H         -4.53160       -2.69311       -1.38609
H         -0.31312       -2.05853       -0.41429
Pd        -0.96941        0.41341        0.22698
O         -1.45176        2.30802       -0.60869
C         -0.25747        2.66335       -0.41004
O          0.52660        1.82226        0.13769
C          0.23791        4.00514       -0.82883
H          1.11390        4.29209       -0.23403
H          0.53389        3.95449       -1.88809
H         -0.56359        4.74884       -0.73474
H          4.05948       -0.46231       -2.93266
H          4.58785       -2.04851       -2.33774
H          5.44240       -0.57212       -1.80631
