33
Benzofuran_H13_Int1_Sub14.log	Energy: -632099.8664282
C         -0.23168       -1.39544       -0.37700
C         -1.61771       -1.14068       -0.05350
C         -0.06044       -0.87622       -1.67284
C         -2.16244       -0.50672       -1.17802
C         -2.39491       -1.36488        1.09530
H          0.71966       -1.06357       -2.40972
O         -1.22558       -0.37328       -2.15776
C         -3.47839       -0.07332       -1.24373
C         -3.72153       -0.94100        1.03082
C         -1.80090       -2.01492        2.30459
C         -4.24931       -0.31395       -0.11029
H         -3.87357        0.42645       -2.12827
H         -4.36826       -1.09276        1.89847
H         -5.29542        0.00115       -0.10318
O          2.56280       -0.52720       -0.61381
C          2.97554       -1.36777        0.29535
O          2.31962       -1.73425        1.25619
C          4.38395       -1.85127        0.03976
H          4.50774       -2.14776       -1.01091
H          5.08446       -1.02426        0.22976
H          4.61640       -2.68823        0.70862
H          0.46047       -2.04158        0.16677
Pd         0.88956        0.46573       -0.26467
O          1.48566        2.34774        0.56371
C          0.27066        2.68514        0.55973
O         -0.57878        1.84262        0.11847
C         -0.17132        4.03098        1.02217
H         -1.21851        3.99797        1.34721
H          0.48234        4.38511        1.82934
H         -0.08774        4.73554        0.18026
H         -0.85921       -1.52264        2.59394
H         -1.55621       -3.07099        2.10563
H         -2.49101       -1.98252        3.15824
