32
Benzoisoxazole_H8_deriv1_Int1_Sub18.log	Energy: -930448.5935841
C         -0.15830       -1.24341        1.14228
C          0.29005       -1.56492       -0.16800
C          0.76990       -0.61521        1.99552
C          1.61850       -1.27483       -0.54435
C         -0.19335       -2.29167       -1.31793
C          2.06884       -0.28102        1.60010
H          0.45282       -0.37116        3.01115
C          2.50441       -0.63086        0.30335
O          1.84843       -1.73406       -1.77990
H         -1.18560       -2.70754       -1.48450
N          0.71381       -2.36914       -2.23922
C          2.99203        0.44630        2.52369
Cl         4.09413       -0.27204       -0.23526
O         -2.57729       -0.62858       -0.39248
C         -3.37501       -0.69658        0.64133
O         -3.07583       -0.32603        1.76242
C         -4.72396       -1.28203        0.30027
H         -5.27201       -1.51085        1.22187
H         -5.29175       -0.54694       -0.28970
H         -4.61417       -2.18247       -0.31970
H         -1.10896       -1.59461        1.54468
Pd        -0.92838        0.42168       -0.13734
O         -1.40329        2.34663       -0.86706
C         -0.20723        2.69194       -0.65883
O          0.57611        1.81304       -0.16861
C          0.28678        4.05391       -0.99840
H         -0.51525        4.79053       -0.86300
H          1.16146        4.30590       -0.38610
H          0.58633        4.06364       -2.05787
H          3.94105       -0.09692        2.64769
H          2.53192        0.58857        3.50962
H          3.24195        1.43535        2.10834
