33
Benzo13dioxol_H9_Int1_Sub30.log	Energy: -655375.1690382
C          0.35531       -1.69610        0.50357
C         -0.79405       -1.55176        1.33113
C          0.24394       -1.65206       -0.91334
C         -1.98311       -1.32764        0.69470
H         -0.71783       -1.59042        2.41731
C         -1.02226       -1.47297       -1.54560
H          1.10488       -1.94271       -1.51870
C         -2.09489       -1.28671       -0.71910
O         -3.19923       -1.12039        1.22925
H         -1.12269       -1.45852       -2.63056
O         -3.37898       -1.05181       -1.04399
C         -4.05945       -0.71620        0.16501
H         -4.97732       -1.32233        0.21894
C         -4.32316        0.76406        0.23191
O          2.78061       -0.28173       -0.63807
C          3.54526       -0.65803        0.35153
O          3.17056       -0.83569        1.49673
C          4.98329       -0.84783       -0.07480
H          5.03947       -1.42336       -1.00899
H          5.43018        0.13835       -0.27125
H          5.54266       -1.34939        0.72377
H          1.30204       -1.97627        0.97120
Pd         0.95600        0.32957       -0.22275
O          1.10799        2.46163       -0.12041
C         -0.13738        2.51631        0.05080
O         -0.78524        1.41690        0.06778
C         -0.85440        3.81187        0.23057
H         -0.14853        4.64972        0.19630
H         -1.60971        3.92310       -0.56112
H         -1.38366        3.80340        1.19450
H         -4.96159        1.06806       -0.60918
H         -3.36400        1.30119        0.18048
H         -4.83010        1.00997        1.17532
