38
Benzoisoxazole_H8_Int1_Sub29.log	Energy: -691429.0054362
C         -0.39639       -1.39992        1.07780
C          0.15915       -1.62022       -0.21426
C          0.48901       -0.91673        2.06283
C          1.52199       -1.35386       -0.44628
C         -0.26415       -2.18166       -1.47231
C          1.82500       -0.63850        1.77685
H          0.10767       -0.75914        3.07316
C          2.39641       -0.84573        0.51010
O          1.82757       -1.68579       -1.71343
H         -1.25618       -2.52488       -1.76109
N          0.71125       -2.20412       -2.32691
H          2.45501       -0.24335        2.57492
C          3.81969       -0.50920        0.14372
O         -2.65739       -0.47086       -0.49041
C         -3.52822       -0.58129        0.47837
O         -3.29132       -0.32382        1.64488
C         -4.87724       -1.06052       -0.00161
H         -5.50141       -1.33118        0.85820
H         -5.36321       -0.25030       -0.56568
H         -4.76798       -1.91359       -0.68545
H         -1.39026       -1.74696        1.36089
Pd        -0.97573        0.44772       -0.03001
O         -1.26870        2.43921       -0.68602
C         -0.07798        2.69483       -0.35941
O          0.60750        1.74427        0.14437
C          0.52701        4.04051       -0.56035
H         -0.23633        4.76071       -0.87698
H          1.00683        4.37168        0.37117
H          1.31008        3.96834       -1.33003
H          4.18029       -1.33754       -0.49148
C          3.83998        0.76408       -0.71084
H          4.86918        0.99927       -1.02229
H          3.22600        0.64602       -1.61499
H          3.43756        1.61470       -0.14071
C          4.74778       -0.38946        1.34403
H          4.71798       -1.28864        1.97784
H          5.78477       -0.24969        1.00529
H          4.49131        0.48043        1.96920
