29
Benzoisoxazole_H10_Int1_Sub18.log	Energy: -905801.6149448
C          0.06176       -1.41755        0.90009
C         -1.02256       -0.94598        1.69474
C         -0.05937       -1.59148       -0.50454
C         -2.23208       -0.63839        1.11556
H         -0.88425       -0.82565        2.76926
C         -1.33853       -1.29745       -1.04087
H          0.68795       -2.13573       -1.08418
C         -2.39484       -0.81610       -0.27902
Cl        -3.54970       -0.04802        2.04626
O         -1.71759       -1.40436       -2.31427
C         -3.42930       -0.64513       -1.24620
N         -3.02271       -0.99404       -2.43354
H         -4.44656       -0.28178       -1.10695
O          2.64547       -0.65118       -0.55866
C          3.37133       -1.01982        0.46370
O          3.00446       -0.98638        1.62516
C          4.74539       -1.49297        0.05321
H          5.23659       -1.98250        0.90236
H          4.68222       -2.17441       -0.80611
H          5.34076       -0.62313       -0.26260
H          0.97070       -1.74690        1.41186
Pd         0.97033        0.32108       -0.20652
O          1.50065        2.36027       -0.39916
C          0.28677        2.66374       -0.22743
O         -0.53583        1.70573       -0.05099
C         -0.17111        4.07968       -0.22871
H          0.09445        4.54454       -1.18909
H         -1.25401        4.13525       -0.06752
H          0.35898        4.63124        0.56115
