45
Benzothiophene_H9_deriv1_Int1_Sub12.log	Energy: -933310.8003476
C         -0.54861        1.31315       -0.83403
C          0.53626        1.79551       -0.07811
C         -0.28712        0.19761       -1.65166
C          1.79641        1.16678       -0.08123
S          0.46978        3.19963        0.92510
C          0.99199       -0.45869       -1.69930
H         -1.02714       -0.07157       -2.40792
C          2.02624       -0.03370       -0.86380
C          2.69777        1.91112        0.76204
C          2.12346        3.00257        1.34407
C          1.03527       -1.57865       -2.71140
C          3.38628       -0.74197       -0.67626
H          3.74249        1.67179        0.93529
H          2.60634        3.71769        2.00914
O         -2.99586       -0.49939       -0.94099
C         -3.80209        0.52095       -0.82970
O         -3.54246        1.56154       -0.25114
C         -5.13369        0.27564       -1.50250
H         -4.98856       -0.13585       -2.51092
H         -5.69464       -0.47253       -0.92260
H         -5.70517        1.21036       -1.54454
H         -1.48734        1.86976       -0.90110
Pd        -1.34691       -0.53708        0.13863
O         -1.84471       -1.76493        1.80597
C         -0.65130       -1.66073        2.20085
O          0.14749       -0.96555        1.49299
C         -0.16967       -2.34970        3.43184
H         -0.99264       -2.46348        4.14842
H          0.18960       -3.35337        3.15624
H          0.66512       -1.79285        3.87582
H          0.12128       -1.55100       -3.31900
H          1.07892       -2.57397       -2.25018
H          1.88459       -1.49135       -3.39940
C          3.56533       -1.07081        0.82159
H          4.53846       -1.56229        0.97638
H          3.51506       -0.20237        1.48540
H          2.76988       -1.75828        1.14389
C          3.55051       -2.09723       -1.37727
H          3.56430       -2.02357       -2.47048
H          4.52231       -2.51549       -1.07447
H          2.78038       -2.81850       -1.07456
C          4.51663        0.15205       -1.21752
H          5.49447       -0.30979       -1.00789
H          4.42240        0.25737       -2.30931
H          4.52355        1.16416       -0.79700
