33
Benzene_H10_Int1_Sub21.log	Energy: -561781.0528548
C          0.43471       -1.76264       -0.08795
C          1.83912       -1.67398       -0.31772
C         -0.09785       -1.55156        1.20855
C          2.65654       -1.36882        0.75552
C          2.37864       -1.83968       -1.70897
C          0.77514       -1.24886        2.28027
H         -1.15400       -1.73778        1.41475
C          2.13112       -1.16134        2.04719
H          3.73497       -1.28416        0.59770
H          0.36349       -1.09527        3.27923
H          2.81184       -0.92427        2.86798
O         -1.99148       -0.41619       -0.83787
C         -3.03259       -0.50278       -0.05260
O         -3.00707       -0.32914        1.15229
C         -4.29808       -0.83972       -0.80641
H         -5.10090       -1.07106       -0.09648
H         -4.58913        0.02446       -1.42210
H         -4.12950       -1.68439       -1.48873
H         -0.21386       -2.15757       -0.87455
Pd        -0.34686        0.31883       -0.04198
O         -0.46308        2.39303       -0.44843
C          0.68071        2.53170        0.06779
O          1.26136        1.48450        0.50205
C          1.32192        3.86978        0.20057
H          1.05614        4.28904        1.18334
H          2.41408        3.77424        0.15197
H          0.95004        4.54788       -0.57747
H          3.45304       -2.07530       -1.65395
H          1.89079       -2.70320       -2.19140
C          2.16725       -0.59020       -2.56342
H          2.60313       -0.71741       -3.56580
H          1.09534       -0.36843       -2.68458
H          2.63233        0.28792       -2.09031
