57
Benzoisoxazole_H9_deriv1_Int1_Sub3.log	Energy: -863237.4168018
C         -0.09576       -0.09273        1.38945
C         -0.64402       -0.93245        0.38237
C          1.30833       -0.04543        1.67083
C          0.31772       -1.71396       -0.32391
C         -2.12656       -1.19665        0.31545
C          2.24304       -0.78133        0.97628
H          1.62155        0.63267        2.46390
C          1.67627       -1.61880       -0.02324
C          0.29884       -2.67976       -1.37828
C          3.74469       -0.69684        1.20413
O          2.36108       -2.43992       -0.82723
H         -0.54461       -3.08318       -1.93577
N          1.49653       -3.09878       -1.66540
O         -2.02086        1.84311        0.42516
C         -1.91318        2.66400        1.43666
O         -0.86499        2.92138        2.00104
C         -3.23610        3.27097        1.83951
H         -4.00666        2.49275        1.93228
H         -3.12240        3.81511        2.78448
H         -3.56749        3.96560        1.05325
H         -0.76675        0.37882        2.10915
Pd        -0.29440        1.24243       -0.32019
O          0.11913        2.63676       -1.87621
C          1.16898        1.98957       -2.13831
O          1.40583        0.94733       -1.44322
C          2.12597        2.43261       -3.19013
H          1.59440        2.97330       -3.98311
H          2.85428        3.12012       -2.73257
H          2.67069        1.57085       -3.59589
C          4.07840        0.28358        2.32757
H          5.16909        0.32368        2.46559
H          3.73435        1.30317        2.09642
H          3.63394       -0.02343        3.28678
C          4.28596       -2.08460        1.58073
H          4.09848       -2.82345        0.78983
H          5.37371       -2.02922        1.74269
H          3.82208       -2.44712        2.51105
C          4.40913       -0.20479       -0.09243
H          5.49467       -0.10150        0.06139
H          4.24535       -0.90588       -0.92198
H          3.99945        0.77156       -0.38954
H         -2.60267       -0.43107        0.94883
C         -2.45642       -2.57264        0.91269
H         -2.03526       -2.64830        1.92828
H         -1.96564       -3.36043        0.31406
C         -3.96175       -2.81292        0.93647
H         -4.17548       -3.81649        1.33802
H         -4.42978       -2.09337        1.63199
C         -4.57911       -2.64625       -0.44769
H         -5.67103       -2.78507       -0.39886
H         -4.19547       -3.44098       -1.11350
C         -4.24101       -1.28502       -1.04540
H         -4.71308       -0.48996       -0.44127
H         -4.66083       -1.19301       -2.05970
C         -2.73671       -1.04458       -1.08092
H         -2.27091       -1.76016       -1.77957
H         -2.51879       -0.03668       -1.46680
