35
Benzothiophene_H9_Int1_Sub23.log	Energy: -869432.7516435
C         -0.01976       -1.27924        0.73369
C          1.30843       -0.85829        0.58363
C         -0.75837       -0.76366        1.83518
C          1.92816        0.04229        1.47540
S          2.38617       -1.32103       -0.70068
C         -0.12412        0.12184        2.76288
H         -1.70939       -1.22890        2.10246
C          1.17472        0.52277        2.58287
C          3.26641        0.33860        1.11041
C          3.65628       -0.31533       -0.04342
H         -0.69510        0.47810        3.62262
H          1.64301        1.21508        3.28608
H          3.91904        1.01454        1.66342
N          4.85027       -0.24874       -0.68131
O         -3.03958       -0.72556        0.08052
C         -3.06175       -1.77093       -0.69667
O         -2.09908       -2.24075       -1.28001
C         -4.44807       -2.36370       -0.82162
H         -4.92067       -2.45666        0.16593
H         -5.07372       -1.68423       -1.41981
H         -4.39138       -3.34000       -1.31753
H         -0.45581       -2.04017        0.07884
Pd        -1.43385        0.42257        0.13081
O         -1.89452        2.03518       -1.19535
C         -0.79615        2.56409       -0.87366
O         -0.06573        1.95340       -0.02863
C         -0.36942        3.87900       -1.43436
H         -0.71215        3.97371       -2.47276
H         -0.83941        4.68247       -0.84651
H          0.72035        3.98618       -1.36854
H          5.59465        0.22506       -0.18937
C          5.19043       -1.06968       -1.80976
H          6.16279       -0.75430       -2.20920
H          4.44582       -0.95090       -2.61493
H          5.24921       -2.14517       -1.55753
