34
Benzoisoxazole_H10_Int1_Sub7.log	Energy: -676846.5083177
C          0.14970       -1.30453       -0.80586
C         -0.25909       -1.88898        0.46324
C         -0.78560       -0.70026       -1.68896
C         -1.60662       -1.81084        0.84930
N          0.70525       -2.47469        1.20261
C         -2.09915       -0.63963       -1.24882
H         -0.48672       -0.36925       -2.68467
C         -2.50235       -1.18078       -0.01982
H         -1.94585       -2.21980        1.80002
O         -3.15563       -0.07306       -1.86902
C         -3.90071       -0.86456       -0.00526
N         -4.25697       -0.22730       -1.08344
H         -4.64864       -1.08221        0.75653
O          2.37681        0.47644       -1.05880
C          3.25072       -0.33461       -0.55723
O          3.02886       -1.17503        0.31013
C          4.63266       -0.15111       -1.13639
H          5.26411       -1.00949       -0.87830
H          4.58354       -0.01457       -2.22499
H          5.07318        0.76359       -0.71140
H          1.10661       -1.63759       -1.20878
Pd         0.60421        0.70868       -0.20600
O          0.71971        2.64222        0.69461
C         -0.48040        2.50445        1.05338
O         -1.06583        1.41411        0.74464
C         -1.19766        3.56495        1.81534
H         -1.13817        4.51322        1.26260
H         -2.24502        3.28338        1.97568
H         -0.69598        3.71592        2.78239
H          1.65697       -2.18024        0.94952
C          0.47408       -2.94214        2.53734
H          1.41109       -3.34518        2.94186
H         -0.27486       -3.75146        2.55599
H          0.12293       -2.14059        3.21539
