33
Benzo13dioxol_H8_Int1_Sub22.log	Energy: -655375.1642628
C          0.79433       -1.55076       -1.33251
C          1.98312       -1.32731       -0.69529
C         -0.35544       -1.69580       -0.50574
C          2.09417       -1.28756        0.71857
O          3.19951       -1.11975       -1.22904
C         -0.24484       -1.65305        0.91128
H         -1.30206       -1.97518       -0.97408
C          1.02108       -1.47447        1.54433
O          3.37812       -1.05299        1.04433
C          4.05918       -0.71635       -0.16406
H         -1.10596       -1.94446        1.51601
H          1.12098       -1.46094        2.62934
H          4.97712       -1.32234       -0.21805
C          4.32285        0.76404       -0.22954
O         -2.78059       -0.28083        0.63812
C         -3.54563       -0.65735       -0.35110
O         -3.17145       -0.83542       -1.49639
C         -4.98345       -0.84703        0.07602
H         -5.03905       -1.42551        1.00844
H         -5.42931        0.13885        0.27622
H         -5.54406       -1.34576       -0.72345
H          0.71872       -1.58833       -2.41878
Pd        -0.95575        0.32961        0.22297
O         -1.10711        2.46177        0.12064
C          0.13823        2.51610       -0.05082
O          0.78588        1.41660       -0.06760
C          0.85537        3.81151       -0.23138
H          1.61281        3.92200        0.55835
H          1.38188        3.80359       -1.19684
H          0.14986        4.64959       -0.19479
H          4.96060        1.06735        0.61235
H          3.36362        1.30109       -0.17827
H          4.83052        1.01097       -1.17231
