27
Benzene_H10_Int1_Sub113.log	Energy: -512477.6395161
C          0.13273       -1.87280       -0.80214
C          1.43342       -2.02156       -1.34710
C         -0.03566       -1.82204        0.60536
C          2.52615       -2.09190       -0.50854
H          1.55704       -2.08299       -2.43020
C          1.10209       -1.91518        1.44414
H         -1.03275       -1.83257        1.05205
C          2.35951       -2.04021        0.89156
H          3.52979       -2.19224       -0.92759
H          0.96720       -1.88753        2.52706
H          3.23680       -2.10105        1.53932
O         -1.99942        0.05815       -0.71217
C         -2.86408       -0.03812        0.26268
O         -2.57370       -0.18367        1.43651
C         -4.29204        0.05999       -0.22162
H         -4.97710       -0.21453        0.58921
H         -4.49204        1.09527       -0.53617
H         -4.45033       -0.58355       -1.09798
H         -0.74389       -1.95531       -1.44821
Pd        -0.10732        0.27594       -0.21400
O          0.17338        2.37141       -0.19862
C          1.39438        2.17946        0.06120
O          1.79323        0.97353        0.14970
C          2.33094        3.31440        0.29221
H          2.27981        3.59958        1.35444
H          3.36032        3.01314        0.06149
H          2.02915        4.18110       -0.30935
