32
Benzoisoxazole_H10_Int1_Sub14.log	Energy: -642133.9602005
C          0.05697       -1.51202        0.89486
C         -0.60155       -1.06455        2.08743
C         -0.60721       -1.57171       -0.36459
C         -1.90941       -0.64890        2.07035
H         -0.02416       -1.05773        3.01308
C         -1.95546       -1.12841       -0.31653
C         -0.09218       -2.32699       -1.55086
C         -2.59559       -0.68367        0.83258
H         -2.40425       -0.29931        2.97785
O         -2.79690       -1.08215       -1.35493
C         -3.89992       -0.36087        0.34758
N         -4.00610       -0.59880       -0.92944
H         -4.75945        0.03589        0.88721
O          2.26589       -0.60545       -0.71965
C          3.18734       -0.64606        0.20840
O          3.00192       -0.30724        1.36323
C          4.51401       -1.15342       -0.30149
H          5.19134       -1.33135        0.54204
H          4.37885       -2.07210       -0.88923
H          4.95254       -0.39898       -0.97163
H          1.02618       -2.00235        1.00013
Pd         0.62871        0.33547       -0.14471
O          1.01521        2.36381       -0.61335
C         -0.13956        2.65415       -0.19512
O         -0.86859        1.69711        0.22590
C         -0.62982        4.05941       -0.15631
H         -0.15243        4.64827       -0.94942
H         -1.72273        4.08359       -0.25084
H         -0.35439        4.49937        0.81470
H         -0.42725       -1.85979       -2.48706
H         -0.49173       -3.35411       -1.52984
H          1.00358       -2.36169       -1.54180
