35
Benzoisoxazole_H8_deriv1_Int1_Sub14.log	Energy: -666792.4103028
C          0.56631       -1.27639       -0.87923
C          1.91184       -0.93199       -0.60733
C         -0.23657       -1.66191        0.22224
C          2.37254       -0.95905        0.70401
C          3.05025       -0.47578       -1.34851
C          0.27655       -1.69125        1.57070
H         -1.20376       -2.13447        0.04681
C          1.58590       -1.33256        1.81059
O          3.64641       -0.57110        0.73482
C          3.16133       -0.22598       -2.80856
N          4.06062       -0.27208       -0.54626
C         -0.65990       -2.11253        2.65786
H          2.00469       -1.32391        2.81791
O         -2.22871       -0.26453       -1.29027
C         -3.25285       -0.66408       -0.58451
O         -3.24363       -0.78417        0.62925
C         -4.47047       -0.95599       -1.42718
H         -5.21862       -1.48646       -0.82639
H         -4.89495       -0.00384       -1.77957
H         -4.19885       -1.54177       -2.31602
H          0.20229       -1.41492       -1.89995
Pd        -0.73647        0.42339       -0.19974
O         -1.11170        2.50514        0.00556
C         -0.02999        2.60577        0.64738
O          0.64854        1.54081        0.82396
C          0.46562        3.91348        1.15879
H         -0.36224        4.62760        1.24402
H          0.96706        3.77369        2.12529
H          1.20695        4.31086        0.44847
H         -0.25081       -1.89681        3.65367
H         -0.85838       -3.19545        2.59631
H         -1.62785       -1.60242        2.53685
H          2.42886        0.53228       -3.12554
H          2.95795       -1.14429       -3.38010
H          4.17009        0.12867       -3.05417
