30
Benzofuran_H9_deriv1_Int1_Sub18.log	Energy: -1184078.2633008
C          0.12194       -1.01517        1.15795
C         -1.18629       -0.54895        1.36524
C          0.36876       -1.63542       -0.09590
C         -2.19794       -0.66328        0.41075
O         -1.63955        0.07958        2.46870
C         -0.68372       -1.76900       -1.06066
H          1.28929       -2.20125       -0.25020
C         -1.94990       -1.28619       -0.83205
C         -3.33821       -0.04213        1.01449
C         -2.93791        0.38161        2.24888
Cl        -0.30555       -2.55587       -2.55022
H         -2.73531       -1.37767       -1.58287
Cl        -4.88468        0.13037        0.31278
H         -3.46633        0.89391        3.04796
O          2.96317       -0.37973        0.02820
C          3.45454       -0.50854        1.23071
O          2.82916       -0.36466        2.26693
C          4.92546       -0.85391        1.21214
H          5.12784       -1.65196        0.48487
H          5.49454        0.03173        0.89179
H          5.24803       -1.15214        2.21662
H          0.87704       -1.01365        1.95247
Pd         1.17896        0.40379       -0.24714
O          1.59905        2.35827       -0.95522
C          0.35905        2.53594       -1.10895
O         -0.41437        1.56787       -0.80712
C         -0.19400        3.83118       -1.59109
H         -1.18044        3.67944       -2.04639
H         -0.30494        4.50711       -0.72907
H          0.50151        4.29625       -2.30120
