29
Benzoisoxazole_H8_Int1_Sub2.log	Energy: -905795.5170274
C          0.35719       -1.33543        0.69421
C          0.77317       -1.42074       -0.66509
C          1.32607       -0.87770        1.61446
C          2.09175       -1.06631       -1.02881
C          0.24931       -1.94899       -1.90248
C          2.60973       -0.50028        1.21552
Cl         0.90402       -0.78960        3.28065
C          3.01999       -0.59784       -0.11670
O          2.27431       -1.31327       -2.33415
H         -0.74894       -2.33264       -2.10424
N          1.12585       -1.86553       -2.85306
H          3.30474       -0.13529        1.97277
H          4.03082       -0.32635       -0.42227
O         -2.08965       -0.52773       -0.73823
C         -2.88667       -0.83152        0.25406
O         -2.59836       -0.69281        1.42860
C         -4.21686       -1.37233       -0.21077
H         -4.76011       -1.79911        0.64053
H         -4.80404       -0.54878       -0.64408
H         -4.07956       -2.12470       -0.99971
H         -0.58010       -1.75328        1.06626
Pd        -0.47719        0.50456       -0.26572
O         -1.03837        2.50958       -0.56834
C          0.14204        2.85765       -0.28271
O          0.96850        1.92973        0.00242
C          0.56594        4.28331       -0.30679
H         -0.27227        4.92982       -0.01763
H          1.42756        4.43545        0.35494
H          0.86191        4.54412       -1.33473
