35
Benzofuran_H9_Int1_Sub15.log	Energy: -666804.1503273
C          0.54562       -1.11183       -1.26547
C          1.90581       -0.96110       -1.13749
C         -0.17877       -1.46671       -0.08558
C          2.59428       -1.18712        0.07834
O          2.77903       -0.56546       -2.10514
C          0.51494       -1.75865        1.15399
H         -1.17271       -1.88908       -0.23610
C          1.90448       -1.59078        1.22359
C          3.96966       -0.90488       -0.21852
C          3.99604       -0.54341       -1.53110
N         -0.19605       -2.18831        2.22595
H          2.43533       -1.77676        2.15975
H          4.82221       -0.95805        0.45399
H          4.81705       -0.24924       -2.18205
O         -2.56292        0.18776       -0.07644
C         -3.01920       -0.29863       -1.19511
O         -2.33654       -0.69170       -2.12589
C         -4.53149       -0.32381       -1.23842
H         -4.93928       -0.74438       -0.30868
H         -4.90437        0.70835       -1.31848
H         -4.87013       -0.90260       -2.10596
H         -0.00568       -0.99764       -2.20017
Pd        -0.64583        0.61532        0.12881
O         -0.64489        2.73118        0.50280
C          0.60400        2.66201        0.64461
O          1.15607        1.51850        0.53459
C          1.43202        3.87716        0.89873
H          2.37411        3.60319        1.38970
H          1.66540        4.35107       -0.06724
H          0.86781        4.59852        1.50353
H          0.31087       -2.29942        3.09187
C         -1.63253       -2.24141        2.27190
H         -1.95018       -2.42652        3.30573
H         -2.03839       -3.05516        1.64558
H         -2.08670       -1.29634        1.92552
