44
Benzoisoxazole_H8_deriv1_Int1_Sub20.log	Energy: -740721.9322251
C         -0.56027       -1.27289        1.16169
C         -0.05454       -1.58641       -0.12356
C          0.34438       -0.65400        2.03527
C          1.28780       -1.27785       -0.45182
C         -0.51175       -2.33582       -1.26340
C          1.65056       -0.29469        1.67742
H          0.00233       -0.42810        3.04695
C          2.17800       -0.59092        0.38204
O          1.52893       -1.77841       -1.68511
H         -1.49789       -2.76151       -1.44001
N          0.41872       -2.42875       -2.15802
C          2.40512        0.44853        2.74761
C          3.59633       -0.19797       -0.06808
O         -2.91782       -0.63457       -0.43572
C         -3.75167       -0.67605        0.57054
O         -3.49348       -0.27957        1.69248
C         -5.08881       -1.26838        0.19405
H         -5.67218       -1.47076        1.10006
H         -5.63194       -0.54949       -0.43760
H         -4.95744       -2.18611       -0.39570
H         -1.52180       -1.63248        1.52812
Pd        -1.27052        0.40552       -0.14169
O         -1.72018        2.32806       -0.90184
C         -0.53101        2.67529       -0.66581
O          0.24204        1.80314       -0.14820
C         -0.02633        4.03554       -1.00158
H         -0.86235        4.73716       -1.10810
H          0.67623        4.37695       -0.22998
H          0.51802        3.98320       -1.95712
H          3.47423        0.21591        2.78146
H          1.97905        0.21525        3.73259
H          2.30357        1.53471        2.59851
C          3.83038       -0.41041       -1.57157
H          4.83753       -0.04190       -1.81711
H          3.77646       -1.46472       -1.86487
H          3.10743        0.14899       -2.18187
C          3.84166        1.30188        0.18237
H          3.96176        1.55910        1.23955
H          4.76686        1.60509       -0.33036
H          3.00936        1.89671       -0.22251
C          4.62764       -1.06603        0.67163
H          5.64536       -0.77076        0.37150
H          4.56389       -0.98074        1.76453
H          4.49335       -2.12680        0.41201
