36
Benzothiophene_H9_deriv1_Int1_Sub14.log	Energy: -859374.8356225
C          0.08365       -1.40594        0.53169
C          1.30918       -1.43303       -0.17064
C          0.01377       -0.56710        1.66919
C          2.40376       -0.65013        0.23069
S          1.65872       -2.35759       -1.58819
C          1.12836        0.22397        2.10349
H         -0.84780       -0.66205        2.33433
C          2.31082        0.19305        1.38215
C          3.52041       -0.82910       -0.64732
C          3.25596       -1.71395       -1.65288
C          0.94957        1.08628        3.32101
C          3.49893        1.02949        1.74392
H          4.47835       -0.32124       -0.53859
H          3.93030       -2.03087       -2.44802
O         -2.68615       -0.18363        0.70840
C         -3.23283       -1.22671        0.14568
O         -2.68792       -1.95006       -0.66971
C         -4.65323       -1.45248        0.61185
H         -4.71730       -1.38643        1.70676
H         -5.29485       -0.65959        0.19909
H         -5.00718       -2.42933        0.26174
H         -0.71930       -2.10631        0.28736
Pd        -0.97451        0.48731       -0.00413
O         -1.53395        2.07311       -1.30774
C         -0.30863        2.30925       -1.49559
O          0.53582        1.57903       -0.88336
C          0.14417        3.42142       -2.37900
H         -0.52328        3.50512       -3.24649
H          0.08656        4.36585       -1.81628
H          1.18146        3.25961       -2.69669
H         -0.04146        0.92962        3.76774
H          1.03150        2.15641        3.07272
H          1.70338        0.87037        4.09398
H          3.36402        1.56716        2.68929
H          3.69089        1.77691        0.95656
H          4.40677        0.41232        1.83175
