46
Benzo13dioxol_H9_Int1_Sub3.log	Energy: -777872.0593045
C          0.06371       -0.13908       -1.53229
C         -0.51771       -1.27345       -0.87861
C         -0.72980        0.91453       -2.06194
C         -1.88512       -1.23904       -0.79378
C          0.30437       -2.33486       -0.20428
C         -2.14810        0.87598       -1.98898
H         -0.24463        1.67458       -2.67804
C         -2.68104       -0.20405       -1.33771
O         -2.69904       -2.14092       -0.19631
H         -2.77090        1.66842       -2.40194
O         -3.97637       -0.47463       -1.08522
C         -4.00084       -1.59548       -0.22009
H         -4.71240       -2.34258       -0.60412
H         -4.28663       -1.26847        0.79676
O          1.70867        2.18494       -0.93466
C          2.81544        1.53904       -0.69666
O          2.88257        0.47196       -0.10669
C          4.03762        2.25599       -1.21951
H          3.86130        2.64169       -2.23285
H          4.24581        3.12037       -0.57095
H          4.89948        1.57828       -1.20620
H          1.12275       -0.18250       -1.78585
Pd         0.10595        1.46419       -0.03748
O          0.07208        2.35174        1.91036
C         -0.99229        1.72132        2.14477
O         -1.47724        1.00369        1.20782
C         -1.65401        1.76631        3.48005
H         -1.36588        2.67772        4.01779
H         -2.74418        1.70491        3.36739
H         -1.32084        0.89376        4.06326
H         -0.32246       -3.24300       -0.14533
C          0.63057       -1.90102        1.23747
H         -0.30404       -1.66179        1.76964
H          1.22352       -0.97138        1.18198
C          1.42579       -2.97064        1.97501
H          1.67347       -2.61808        2.98950
H          0.79971       -3.87316        2.10227
C          2.69567       -3.33713        1.21474
H          3.24489       -4.13368        1.74265
H          3.36051       -2.45619        1.18307
C          2.37696       -3.76658       -0.21346
H          1.78832       -4.70233       -0.19429
H          3.30521       -3.99465       -0.76165
C          1.59293       -2.68639       -0.95057
H          2.22452       -1.78484       -1.01702
H          1.35879       -3.00654       -1.97948
