42
Benzofuran_H9_deriv1_Int1_Sub4.log	Energy: -994353.5457904
C         -0.18132       -0.41109        1.36773
C         -0.41255        0.85130        1.95146
C         -1.12884       -0.92226        0.42606
C         -1.48604        1.66954        1.60955
O          0.34246        1.43089        2.89736
C         -2.18938       -0.02370        0.04389
C         -1.16506       -2.43463        0.11482
C         -2.37944        1.21517        0.62180
C         -1.34196        2.84652        2.41929
C         -0.22473        2.63359        3.16595
Cl        -3.28218       -0.40324       -1.25793
H         -3.20410        1.83921        0.27604
H         -1.97862        3.72742        2.44094
H          0.28176        3.23201        3.91880
O          2.06734       -1.31379       -0.23250
C          3.07503       -0.89616        0.49126
O          3.11919        0.20000        1.01838
C          4.17208       -1.92432        0.62059
H          3.78425       -2.82441        1.12075
H          4.51903       -2.22986       -0.37678
H          5.00385       -1.50632        1.19958
H          0.55220       -1.07191        1.82507
Pd         0.75875        0.12832       -0.55710
O          1.59716        1.11805       -2.22879
C          0.63126        1.92909       -2.20521
O         -0.26314        1.74868       -1.31630
C          0.54679        3.07715       -3.14990
H         -0.50282        3.32339       -3.35471
H          1.02246        3.95197       -2.68021
H          1.08538        2.84521       -4.07704
C         -0.90056       -2.71430       -1.37147
H         -1.02363       -3.79063       -1.56862
H         -1.58818       -2.16784       -2.02820
H          0.13166       -2.43807       -1.63380
C         -0.11922       -3.20470        0.92934
H         -0.29355       -3.11051        2.01246
H         -0.19985       -4.27248        0.67743
H          0.90033       -2.87725        0.69073
C         -2.53942       -2.98080        0.54487
H         -2.54363       -4.07414        0.41777
H         -2.72698       -2.76569        1.60830
H         -3.36907       -2.57072       -0.04227
