30
Benzo13dioxol_H8_Int1_Sub10.log	Energy: -919034.0160281
C         -0.37757       -0.99956        1.39232
C         -1.73188       -0.74667        1.32851
C          0.23578       -1.53587        0.21623
C         -2.47261       -1.01469        0.17788
O         -2.55198       -0.20744        2.26560
C         -0.55809       -1.84362       -0.92416
H          1.23317       -1.96937        0.29475
C         -1.92229       -1.57791       -0.96761
O         -3.74740       -0.64466        0.37008
C         -3.77345        0.05465        1.61025
Cl         0.20200       -2.58418       -2.28126
H         -2.52181       -1.78039       -1.85381
H         -4.61347       -0.31135        2.21897
H         -3.87301        1.13754        1.40830
O          2.64009        0.09723       -0.04722
C          3.13703       -0.28334        1.09559
O          2.48653       -0.54274        2.09390
C          4.64588       -0.36650        1.06604
H          4.98573       -0.90815        0.17260
H          5.05949        0.65136        1.00684
H          5.00757       -0.85684        1.97755
H          0.23892       -0.83909        2.27810
Pd         0.73775        0.55421       -0.19824
O          0.79501        2.60747       -0.77197
C         -0.46073        2.59127       -0.85184
O         -1.05520        1.49084       -0.59522
C         -1.24161        3.81269       -1.19802
H         -2.18324        3.53679       -1.68937
H         -1.47907        4.35375       -0.26886
H         -0.64409        4.47447       -1.83729
