39
Benzothiophene_H9_Int1_Sub21.log	Energy: -884023.2674671
C         -0.41096       -1.40891        0.62903
C          0.95937       -1.08703        0.49448
C         -1.07345       -0.97801        1.80750
C          1.65527       -0.36086        1.47722
S          1.98033       -1.47611       -0.84326
C         -0.35942       -0.26365        2.81706
H         -2.07352       -1.35970        2.02321
C          0.96798        0.04472        2.65127
C          3.01900       -0.14278        1.10959
C          3.34470       -0.67984       -0.10588
H         -0.88696        0.03323        3.72529
H          1.50686        0.60296        3.42030
H          3.72836        0.39896        1.73489
C          4.65874       -0.64530       -0.83620
O         -3.27876       -0.58214       -0.00879
C         -3.36648       -1.47613       -0.95534
O         -2.43275       -1.88563       -1.62320
C         -4.78365       -1.96291       -1.15596
H         -5.25464       -2.19619       -0.19114
H         -5.37381       -1.15928       -1.62152
H         -4.78404       -2.84258       -1.81042
H         -0.90207       -2.07134       -0.08970
Pd        -1.60096        0.43485        0.18523
O         -1.97006        2.24631       -0.86255
C         -0.83230        2.65273       -0.49673
O         -0.13251        1.87582        0.22932
C         -0.32940        4.00471       -0.87177
H         -0.66101        4.25941       -1.88670
H         -0.75813        4.74535       -0.17925
H          0.76422        4.04006       -0.79517
H          4.92155       -1.69247       -1.07487
C          4.53398        0.11380       -2.16019
H          5.48774        0.09269       -2.70900
H          3.75909       -0.32243       -2.80791
H          4.26361        1.16551       -1.97694
C          5.77301       -0.07030        0.02856
H          5.88789       -0.62947        0.96873
H          6.73112       -0.11105       -0.50997
H          5.57693        0.98459        0.27765
