32
Benzene_H10_Int1_Sub120.log	Energy: -571844.5914961
C          0.30183       -1.67497       -0.92248
C          1.62901       -1.43815       -1.27967
C         -0.09448       -1.69449        0.44406
C          2.59958       -1.19438       -0.29386
H          1.91162       -1.41325       -2.33479
C          0.91403       -1.51053        1.43078
H         -1.06975       -2.07574        0.75031
C          2.21523       -1.25615        1.07861
N          3.87947       -0.91459       -0.64448
H          0.63389       -1.56292        2.48497
H          2.95974       -1.08400        1.85593
O         -2.42440       -0.41018       -0.71695
C         -3.25900       -0.77933        0.21546
O         -2.98748       -0.86996        1.39956
C         -4.63546       -1.08670       -0.33136
H         -5.24795       -1.55578        0.44782
H         -5.10979       -0.14869       -0.65672
H         -4.56503       -1.73868       -1.21315
H         -0.43172       -1.92759       -1.69143
Pd        -0.68362        0.31618       -0.14332
O         -0.90260        2.43983       -0.28708
C          0.30596        2.55420        0.04875
O          0.97164        1.48896        0.25991
C          0.93908        3.89319        0.23330
H          0.75212        4.23033        1.26460
H          2.02361        3.82882        0.07997
H          0.48765        4.62262       -0.45105
H          4.06908       -0.82023       -1.63156
C          4.91550       -0.54119        0.27596
H          5.83182       -0.32278       -0.28704
H          5.14948       -1.35173        0.98712
H          4.65056        0.35932        0.85821
