38
Benzoisoxazole_H9_Int1_Sub29.log	Energy: -691438.2749245
C         -0.36833       -0.50815        1.85316
C          0.47511       -1.04560        0.84803
C          0.06955        0.58694        2.66570
C          1.75222       -0.44598        0.67825
H          0.21581       -1.98864        0.36400
C          1.30448        1.16443        2.49643
H         -0.60767        0.95815        3.43707
C          2.11980        0.62808        1.48007
C          2.87720       -0.59905       -0.20030
H          1.64664        2.00271        3.10428
O          3.33257        1.05480        1.12997
C          3.06286       -1.55629       -1.33676
N          3.79312        0.28865        0.08238
O         -2.05230       -1.35613       -0.47633
C         -3.12133       -1.54195        0.25331
O         -3.41119       -0.88371        1.23585
C         -3.98118       -2.67305       -0.25964
H         -3.36969       -3.56255       -0.46519
H         -4.76460       -2.90344        0.47185
H         -4.44363       -2.36829       -1.21035
H         -1.29602       -1.01513        2.12715
Pd        -1.00183        0.27482       -0.12830
O         -1.68910        1.67657       -1.56688
C         -0.81349        2.48538       -1.15200
O         -0.05604        2.09454       -0.20347
C         -0.67884        3.85713       -1.71462
H         -1.08016        3.89068       -2.73483
H         -1.25833        4.55151       -1.08671
H          0.37201        4.17326       -1.69270
H          4.05169       -1.32081       -1.76172
C          3.07572       -3.00441       -0.84978
H          3.27113       -3.68810       -1.68952
H          3.85462       -3.16475       -0.09007
H          2.10792       -3.29127       -0.40933
C          2.00199       -1.32026       -2.41320
H          2.00822       -0.27507       -2.75589
H          2.18950       -1.96687       -3.28351
H          0.98880       -1.54535       -2.04410
