35
Benzofuran_H13_deriv1_Int1_Sub15.log	Energy: -955122.8566677
C          0.33072       -1.33159        0.61177
C         -1.00181       -1.11437        1.14106
C          0.16983       -1.31949       -0.79238
C         -1.82967       -0.98811        0.02771
C         -1.53258       -0.98509        2.43208
Cl         1.12814       -2.03656       -2.00634
O         -1.12831       -1.13712       -1.13994
C         -3.19663       -0.68724        0.08341
C         -2.89330       -0.72516        2.52068
H         -0.90074       -1.07668        3.31576
C         -3.70803       -0.57286        1.38659
N         -3.92817       -0.54734       -1.06080
H         -3.35624       -0.62061        3.50463
H         -4.76709       -0.35110        1.52376
O          2.86762       -0.10905       -0.28209
C          3.49791       -0.58240        0.75584
O          2.99553       -0.81614        1.84210
C          4.96062       -0.83109        0.46557
H          5.06336       -1.47886       -0.41666
H          5.45404        0.12246        0.22758
H          5.43824       -1.29343        1.33724
H          1.20596       -1.67630        1.16644
Pd         1.02480        0.57533       -0.14033
O          1.26948        2.69495       -0.24541
C          0.01345        2.80529       -0.21728
O         -0.67699        1.73466       -0.17847
C         -0.65324        4.13775       -0.19383
H         -1.68711        4.05601       -0.55102
H         -0.66754        4.50229        0.84491
H         -0.08199        4.85480       -0.79719
H         -3.39543       -0.44808       -1.91334
C         -5.28336       -0.08174       -1.05780
H         -5.64835       -0.02704       -2.09158
H         -5.39725        0.91951       -0.59912
H         -5.94404       -0.77705       -0.51287
