30
Benzofuran_H13_deriv1_Int1_Sub10.log	Energy: -1184080.1191412
C          0.26247       -1.29500        0.65360
C         -1.07087       -1.04499        1.16731
C          0.10430       -1.30462       -0.74916
C         -1.89271       -0.91804        0.03980
C         -1.60656       -0.88965        2.44839
Cl         1.05381       -2.04407       -1.95113
O         -1.18969       -1.09820       -1.10881
C         -3.24532       -0.61546        0.13410
C         -2.96490       -0.61224        2.55178
H         -0.97312       -0.97842        3.33221
C         -3.77447       -0.47408        1.41466
Cl        -4.20566       -0.42773       -1.27910
H         -3.41977       -0.49049        3.53683
H         -4.83729       -0.24849        1.51643
O          2.82982       -0.11160       -0.26531
C          3.45776       -0.66264        0.73468
O          2.95685       -0.97113        1.80355
C          4.91738       -0.90124        0.42386
H          5.01057       -1.50487       -0.49025
H          5.41390        0.06045        0.22973
H          5.39778       -1.41009        1.26756
H          1.13245       -1.64591        1.21670
Pd         0.99447        0.58749       -0.10771
O          1.26077        2.69934       -0.24627
C          0.00588        2.82320       -0.21181
O         -0.69031        1.75811       -0.12042
C         -0.65569        4.15351       -0.30588
H         -1.64724        4.11999        0.16221
H         -0.02440        4.92233        0.15717
H         -0.77990        4.40686       -1.37016
