42
Benzofuran_H13_deriv1_Int1_Sub20.log	Energy: -994361.4204758
C         -0.43020       -1.28868        0.23353
C          0.95905       -0.90901        0.39505
C         -1.03830       -0.92279        1.45531
C          1.06205       -0.35380        1.67341
C          2.08146       -0.96343       -0.43745
Cl        -2.44844       -1.52675        2.19536
O         -0.14147       -0.38469        2.31899
C          2.24665        0.16490        2.16910
C          3.29833       -0.46608        0.02727
H          1.98149       -1.38660       -1.43631
C          3.35025        0.08775        1.32776
H          2.30534        0.60691        3.16406
C          4.57062       -0.48740       -0.82336
H          4.30020        0.48130        1.69603
O         -3.13008       -0.49592       -0.65753
C         -3.07939       -1.33064       -1.65678
O         -2.06162       -1.69667       -2.22105
C         -4.45159       -1.82540       -2.05322
H         -4.96246       -2.25433       -1.17941
H         -5.06003       -0.97810       -2.40136
H         -4.36060       -2.57420       -2.84863
H         -0.84857       -1.93903       -0.53798
Pd        -1.54148        0.53053       -0.10182
O         -1.94828        2.50316       -0.80972
C         -0.87837        2.88186       -0.25909
O         -0.19025        2.00860        0.36421
C         -0.43696        4.30413       -0.30242
H          0.64297        4.37489       -0.12398
H         -0.70834        4.75223       -1.26688
H         -0.96360        4.85868        0.48956
C          4.32932       -1.11812       -2.19508
H          5.26506       -1.11549       -2.77403
H          3.99470       -2.16337       -2.11215
H          3.57923       -0.56075       -2.77641
C          5.06057        0.95301       -1.03253
H          5.29483        1.45028       -0.07954
H          5.97515        0.96093       -1.64634
H          4.29657        1.55571       -1.54698
C          5.65209       -1.30210       -0.09895
H          6.57641       -1.32842       -0.69743
H          5.90336       -0.87233        0.88213
H          5.31991       -2.33887        0.06352
