30
Benzoicacid_H10_Int1_Sub10.log	Energy: -919058.5949654
C          0.13614       -1.41713        0.18821
C          1.50022       -1.17480       -0.13149
C         -0.37776       -1.11508        1.46626
C          1.88629       -1.52250       -1.52921
C          2.30937       -0.59342        0.83848
C          0.48598       -0.53872        2.43726
H         -1.35166       -1.52103        1.74463
O          3.17692       -1.80519       -1.69724
O          1.08299       -1.57330       -2.42549
C          1.79505       -0.27417        2.11924
Cl         3.95588       -0.17574        0.56735
H          0.10816       -0.31468        3.43695
H          3.28791       -2.00903       -2.63914
H          2.46806        0.18832        2.84227
O         -2.86293       -0.02517        0.11037
C         -3.31431       -1.23026       -0.09434
O         -2.64153       -2.24391       -0.15201
C         -4.81691       -1.24591       -0.26593
H         -5.17715       -2.28139       -0.26652
H         -5.30287       -0.66573        0.53049
H         -5.07297       -0.76539       -1.22197
H         -0.49122       -1.98238       -0.50583
Pd        -0.99253        0.55613        0.14258
O         -1.22146        2.49414       -0.70110
C          0.01262        2.68330       -0.52623
O          0.67976        1.73587        0.00789
C          0.67339        3.96542       -0.89439
H          0.54668        4.67808       -0.06481
H          1.74615        3.80710       -1.06056
H          0.19512        4.39176       -1.78540
