32
Benzoisoxazole_H10_Int1_Sub22.log	Energy: -642135.3661418
C         -0.00234       -1.44304        0.97356
C         -0.99695       -0.97105        1.87922
C         -0.27436       -1.60042       -0.41108
C         -2.27114       -0.63700        1.46823
H         -0.72237       -0.86632        2.93065
C         -1.60314       -1.29359       -0.79646
H          0.40324       -2.13816       -1.07620
C         -2.56072       -0.81422        0.08658
C         -3.30705       -0.09747        2.39807
O         -2.11847       -1.38506       -2.02360
C         -3.69268       -0.62671       -0.76517
N         -3.42445       -0.96533       -1.99480
H         -4.68940       -0.25821       -0.52411
O          2.41364       -0.67929       -0.71071
C          3.24835       -1.00458        0.24076
O          3.01413       -0.91107        1.43254
C          4.56568       -1.51101       -0.29774
H          5.15135       -1.95509        0.51579
H          4.40228       -2.24070       -1.10261
H          5.12175       -0.66604       -0.73087
H          0.95024       -1.78901        1.38283
Pd         0.78963        0.30732       -0.19591
O          1.31211        2.34358       -0.44771
C          0.12553        2.65765       -0.15157
O         -0.68464        1.71050        0.11303
C         -0.31391        4.08002       -0.11067
H         -0.14021        4.54033       -1.09395
H         -1.37467        4.14980        0.15711
H          0.29883        4.62667        0.62067
H         -4.23915       -0.68129        2.34084
H         -3.55498        0.94137        2.12626
H         -2.95642       -0.10347        3.43831
