35
Benzoisoxazole_H8_deriv1_Int1_Sub30.log	Energy: -666778.7241832
C         -0.07981       -1.22981        1.19074
C          0.03359       -1.77689       -0.11844
C          1.10638       -0.79539        1.80870
C          1.31425       -1.89875       -0.70736
C         -0.80661       -2.46459       -1.07001
C          2.35512       -0.87330        1.17868
H          1.04185       -0.38171        2.81739
C          2.47018       -1.45342       -0.09724
O          1.20047       -2.53492       -1.88289
H         -1.88489       -2.61082       -1.03757
N         -0.11886       -2.88182       -2.08529
C          3.56883       -0.28786        1.84510
H          3.43906       -1.55416       -0.58914
O         -2.49750       -0.16007       -0.07412
C         -3.09162        0.13408        1.05333
O         -2.51784        0.56371        2.03769
C         -4.58080       -0.10981        1.00863
H         -4.99571       -0.05242        2.02187
H         -5.04890        0.66091        0.37800
H         -4.80398       -1.08422        0.55263
H         -1.00718       -1.26541        1.76324
Pd        -0.62452        0.43389       -0.22630
O         -0.75181        2.36475       -1.06880
C          0.50905        2.40478       -1.10799
O          1.13893        1.38357       -0.67665
C          1.24309        3.57699       -1.65823
H          0.60229        4.46689       -1.64745
H          2.16275        3.74801       -1.08339
H          1.52848        3.35731       -2.69857
H          4.46546       -0.84353        1.52739
H          3.48513       -0.42191        2.93542
C          3.73735        1.19553        1.52072
H          4.62810        1.60665        2.01910
H          2.85865        1.77032        1.84944
H          3.83676        1.35195        0.43675
