33
Benzo13dioxol_H8_deriv1_Int1_Sub9.log	Energy: -1130423.2501209
C          0.32642        0.07655        1.99897
C         -0.88236        0.72459        1.97184
C          0.47649       -1.03694        1.11819
C         -1.92763        0.32091        1.12697
O         -1.27242        1.82341        2.65942
C         -0.60368       -1.46629        0.30571
H          1.31717       -1.71422        1.26672
C         -1.83168       -0.78017        0.27757
O         -2.95647        1.16059        1.27633
C         -2.50240        2.22596        2.10252
Cl        -0.37813       -2.90042       -0.61632
C         -2.94249       -1.17786       -0.66476
H         -3.23870        2.40650        2.89962
H         -2.36396        3.12747        1.47816
O          2.94706       -0.72597       -0.38224
C          3.67293       -0.72081        0.70061
O          3.32559       -0.24545        1.76933
C          5.02205       -1.36804        0.49633
H          4.91752       -2.32206       -0.03829
H          5.64243       -0.70948       -0.12990
H          5.51160       -1.51762        1.46590
H          1.16348        0.36424        2.63528
Pd         1.28993        0.32546       -0.39351
O          1.67084        1.82194       -1.86098
C          0.50132        2.25181       -1.68901
O         -0.22683        1.64698       -0.83015
C         -0.02335        3.43496       -2.42615
H         -1.08175        3.28286       -2.67565
H          0.04977        4.31905       -1.77408
H          0.57012        3.61338       -3.33082
F         -3.98911       -0.36563       -0.55645
F         -3.37089       -2.41694       -0.42014
F         -2.53023       -1.13678       -1.93274
