30
Benzene_H10_Int1_Sub54.log	Energy: -599369.0287438
C          0.04646        1.56117        1.19220
C          1.35728        1.79838        1.67903
C         -0.24527        1.73462       -0.18954
C          2.35729        2.17184        0.80777
H          1.55719        1.68875        2.74667
C          0.81010        2.12997       -1.05665
C         -1.66025        1.85160       -0.70075
C          2.08008        2.33499       -0.56629
H          3.36962        2.34526        1.17857
H          0.58896        2.29110       -2.11373
H          2.88230        2.63228       -1.24495
O         -1.74373       -0.67609        0.90218
C         -2.52459       -1.19149       -0.01459
O         -2.20798       -1.30839       -1.18412
C         -3.86095       -1.63156        0.52850
H         -4.54390       -1.84880       -0.30124
H         -3.71852       -2.54084        1.13172
H         -4.28593       -0.86371        1.18975
H         -0.77727        1.41768        1.89607
Pd         0.11194       -0.46086        0.26690
O          0.78597       -2.44259       -0.03463
C          1.91282       -1.98206       -0.36645
O          2.06379       -0.71720       -0.32318
C          3.01609       -2.86900       -0.82772
H          2.90816       -3.02410       -1.91241
H          3.98926       -2.39938       -0.63772
H          2.94599       -3.84631       -0.33375
F         -1.86337        3.14087       -1.13692
H         -1.83595        1.16003       -1.53864
H         -2.37769        1.62340        0.09965
