33
Benzo13dioxol_H9_Int1_Sub6.log	Energy: -655371.6658034
C          0.04891       -1.62496        0.02029
C         -1.05110       -1.52567        0.92925
C         -0.08868       -1.31727       -1.36085
C         -2.22190       -1.08861        0.36614
C         -0.90530       -1.80353        2.38938
C         -1.34027       -0.91388       -1.90411
H          0.73371       -1.56371       -2.03560
C         -2.36806       -0.79349       -1.00883
O         -3.40415       -0.86962        0.98512
H         -1.46571       -0.69320       -2.96342
O         -3.63690       -0.39743       -1.23365
C         -4.25929       -0.27341        0.03159
H         -5.22775       -0.79680        0.02013
H         -4.39562        0.79717        0.27205
O          2.59682       -0.31656       -0.77479
C          3.28595       -0.87683        0.18197
O          2.85536       -1.13371        1.29294
C          4.70920       -1.17587       -0.23006
H          4.73549       -1.65377       -1.21905
H          5.26374       -0.22881       -0.31016
H          5.18630       -1.81532        0.52204
H          0.96266       -2.09775        0.38619
Pd         0.83330        0.41680       -0.28954
O          1.18136        2.47509        0.17960
C         -0.05806        2.61304        0.35387
O         -0.80085        1.59031        0.18253
C         -0.65638        3.93039        0.71592
H          0.08207        4.55199        1.23703
H         -0.95629        4.44698       -0.20899
H         -1.55213        3.78437        1.33304
H         -0.92671       -0.86120        2.96044
H          0.05275       -2.29599        2.59985
H         -1.72752       -2.43102        2.76397
