37
Benzene_H10_Int1_Sub172.log	Energy: -657358.1606569
C          0.83609       -1.40717        1.44501
C         -0.17133       -0.93497        2.32525
C          0.49556       -1.69063        0.09799
C         -1.44590       -0.70936        1.85766
H          0.07262       -0.75552        3.37424
C         -0.82692       -1.47620       -0.34899
H          1.21728       -2.15900       -0.57551
C         -1.79527       -0.96974        0.50631
H         -2.21597       -0.34033        2.53840
H         -1.06921       -1.67753       -1.39412
C         -3.16310       -0.68549        0.02574
O          3.27341       -0.45021        0.23978
C          3.66892       -1.06556       -0.84252
O          2.95323       -1.33757       -1.78976
C          5.14077       -1.40657       -0.80510
H          5.38450       -2.08375       -1.63225
H          5.72467       -0.47941       -0.90610
H          5.41080       -1.85873        0.15918
H          1.80957       -1.71099        1.83512
Pd         1.47439        0.34804        0.22569
O          1.80306        2.35321       -0.37690
C          0.57000        2.57433       -0.22150
O         -0.15186        1.61146        0.19532
C         -0.03464        3.89630       -0.54667
H         -0.31461        3.89946       -1.61151
H         -0.94100        4.05867        0.04999
H          0.69596        4.69799       -0.38109
C         -3.82420        0.48448        0.42651
C         -3.82002       -1.56407       -0.84709
C         -5.75323       -0.11706       -0.89694
C         -5.10505       -1.28303       -1.30254
C         -5.10752        0.76659       -0.03295
H         -3.30658        1.19407        1.07600
H         -5.60457        1.68807        0.27952
H         -6.76140        0.10349       -1.25537
H         -5.60682       -1.98339       -1.97438
H         -3.32503       -2.48913       -1.15223
