29
Benzoisoxazole_H9_Int1_Sub26.log	Energy: -905800.5026403
C         -0.30527       -0.93628        1.60283
C          0.44162       -1.34311        0.46905
C          0.27372       -0.07306        2.59094
C          1.77142       -0.85701        0.37673
H          0.08250       -2.13627       -0.19000
C          1.55699        0.40477        2.48121
H         -0.33937        0.20247        3.45101
C          2.28270       -0.00413        1.34515
C          2.86216       -0.96270       -0.53716
H          2.00162        1.06876        3.22305
O          3.53432        0.34104        1.02754
Cl         2.88370       -1.86038       -1.98025
N          3.89154       -0.26191       -0.15213
O         -2.17614       -1.08808       -0.71637
C         -3.22152       -1.29970        0.03993
O         -3.37020       -0.84040        1.15819
C         -4.24898       -2.18110       -0.62911
H         -3.77028       -3.05531       -1.09119
H         -5.00198       -2.49307        0.10413
H         -4.73599       -1.61140       -1.43472
H         -1.27505       -1.38815        1.82230
Pd        -0.90943        0.30061       -0.13198
O         -1.48124        2.03652       -1.20699
C         -0.48340        2.63367       -0.71650
O          0.25663        1.97402        0.08682
C         -0.15104        4.03845       -1.07788
H         -1.06164        4.58339       -1.35585
H          0.36738        4.53235       -0.24644
H          0.52537        4.02520       -1.94662
