46
Benzofuran_H9_deriv1_Int1_Sub11.log	Energy: -1042912.0551252
C          1.11859       -1.42890        0.83600
C          0.07075       -1.10628        1.71144
C          0.76870       -1.47599       -0.53626
C         -1.23200       -0.81221        1.30011
O          0.18497       -1.00748        3.05023
C         -0.57125       -1.19885       -0.95592
H          1.45738       -1.91621       -1.25926
C         -1.58567       -0.84001       -0.08464
C         -1.93892       -0.51058        2.51508
C         -1.02918       -0.64996        3.51812
Cl        -0.84227       -1.30030       -2.66918
C         -2.96150       -0.45748       -0.55451
H         -2.97955       -0.22734        2.63961
H         -1.10550       -0.53270        4.59634
O          3.40419       -0.35552       -0.95286
C          4.28396       -0.90844       -0.16313
O          4.11683       -1.15156        1.01912
C          5.57781       -1.21937       -0.88053
H          5.37925       -1.70983       -1.84334
H          6.10115       -0.27590       -1.09677
H          6.21000       -1.85150       -0.24587
H          2.10126       -1.74876        1.19764
Pd         1.76961        0.45832       -0.21802
O          2.14939        2.55135       -0.31538
C          0.96881        2.75149        0.07971
O          0.24528        1.72938        0.32000
C          0.41334        4.12557        0.23041
H         -0.40030        4.12837        0.96640
H          1.20835        4.82498        0.51824
H          0.00761        4.44819       -0.74102
H         -2.96335       -0.56097       -1.65061
C         -3.27435        1.01625       -0.25400
H         -2.48020        1.64846       -0.68025
H         -3.24615        1.19132        0.83460
C         -4.64405        1.40515       -0.79685
H         -4.86672        2.45393       -0.54202
H         -4.62590        1.35166       -1.90037
C         -5.73830        0.48331       -0.26905
H         -6.71541        0.76316       -0.69454
H         -5.82776        0.61590        0.82496
C         -5.42699       -0.97840       -0.57235
H         -5.44034       -1.13197       -1.66644
H         -6.20972       -1.63438       -0.15865
C         -4.06263       -1.38742       -0.02828
H         -4.08674       -1.36400        1.07400
H         -3.82884       -2.42682       -0.30896
