49
Benzothiophene_H13_deriv1_Int1_Sub27.log	Energy: -1106370.0454642
C          0.19097        0.01719        1.09481
C         -0.07866       -1.35264        0.70919
C          1.24472        0.10096        2.02005
C          0.75233       -2.26457        1.39324
C         -0.98474       -1.83314       -0.25572
H          1.46708        0.96475        2.64905
S          1.85683       -1.46170        2.48568
C          0.67568       -3.63949        1.16559
C         -1.06770       -3.20149       -0.47099
C         -1.79801       -0.86008       -1.08438
C         -0.25294       -4.09443        0.24034
H          1.32709       -4.33531        1.69742
H         -1.76498       -3.57606       -1.22072
H         -0.33954       -5.16627        0.04867
O          1.59739        2.62762        0.62958
C          0.45582        3.24472        0.51224
O         -0.62406        2.72331        0.28073
C          0.59664        4.73949        0.68978
H          1.23414        4.96927        1.55428
H          1.09149        5.15578       -0.20063
H         -0.39377        5.19572        0.80369
H         -0.45433        0.87496        0.86438
Pd         1.92710        0.76287        0.05797
O          3.20112        0.95838       -1.64556
C          3.25537       -0.30077       -1.69628
O          2.61768       -0.95597       -0.80701
C          4.05424       -1.01205       -2.73257
H          5.10189       -1.06052       -2.39766
H          3.67954       -2.03398       -2.86808
H          4.02451       -0.45316       -3.67664
F         -2.39800       -1.53867       -2.10247
F         -0.92298        0.00294       -1.67782
C         -2.85512       -0.07178       -0.32178
H         -2.34287        0.39491        0.53458
C         -3.94985       -0.98647        0.22574
H         -3.50989       -1.77207        0.86213
H         -4.43735       -1.50095       -0.62007
C         -4.98691       -0.18831        1.00821
H         -5.78588       -0.85800        1.36517
H         -4.51034        0.23538        1.91078
C         -5.57091        0.94459        0.17119
H         -6.28735        1.53133        0.76881
H         -6.14590        0.51299       -0.66833
C         -4.47393        1.84569       -0.38439
H         -3.96339        2.36615        0.44553
H         -4.90786        2.63332       -1.02090
C         -3.43543        1.05709       -1.17300
H         -3.89397        0.62394       -2.07894
H         -2.62175        1.72066       -1.49664
