32
Benzooxazole_H10_Int1_Sub14.log	Energy: -642159.7752436
C         -0.02285       -1.63005       -0.34255
C          0.28191       -1.14481       -1.65027
C          0.94165       -1.64889        0.70586
C          1.56506       -0.67382       -1.97826
H         -0.47539       -1.25178       -2.43004
C          2.17007       -1.14627        0.33495
C          0.60627       -2.16190        2.06641
C          2.50336       -0.67473       -0.95754
H          1.81100       -0.31323       -2.97684
O          3.27776       -0.99238        1.11097
N          3.82184       -0.24806       -0.93481
C          4.19760       -0.45739        0.27613
H          5.17699       -0.25764        0.71110
O         -2.53793       -0.27911       -0.76731
C         -3.16186       -0.86801        0.21611
O         -2.65435       -1.13362        1.29354
C         -4.60150       -1.18596       -0.10892
H         -4.68700       -1.62629       -1.11180
H         -5.01187       -1.86376        0.64898
H         -5.18005       -0.24988       -0.11205
H         -0.95968       -2.16138       -0.17051
Pd        -0.76882        0.44762       -0.29916
O         -1.14157        2.46509        0.25297
C          0.09827        2.61527        0.42695
O          0.84828        1.60698        0.21161
C          0.68193        3.92366        0.83481
H          1.59400        3.76483        1.42406
H          0.95241        4.48556       -0.07257
H         -0.05516        4.50821        1.39905
H          1.24169       -1.69951        2.83359
H          0.75969       -3.25259        2.11806
H         -0.45066       -1.95488        2.28773
