29
Benzene_H10_Int1_Sub6.log	Energy: -560220.9373772
C          0.35790       -1.72062       -0.59590
C          1.69365       -1.50058       -1.00445
C          0.01990       -1.66101        0.78002
C          2.67289       -1.20362       -0.06400
H          1.95741       -1.56761       -2.06090
C          1.03695       -1.38286        1.72775
H         -0.97427       -1.94997        1.12881
C          2.32822       -1.15164        1.31516
C          4.02002       -0.96006       -0.46821
H          0.78141       -1.35329        2.78853
H          3.11072       -0.92445        2.04095
O         -2.23261       -0.48059       -0.84542
C         -3.13543       -0.78878        0.04741
O         -2.94388       -0.80395        1.25036
C         -4.47122       -1.12357       -0.57366
H         -5.13270       -1.55929        0.18441
H         -4.92276       -0.20067       -0.96754
H         -4.34473       -1.81197       -1.42057
H         -0.37635       -2.08226       -1.31876
Pd        -0.54528        0.28857       -0.18242
O         -0.84891        2.37954       -0.30257
C          0.33983        2.54659        0.08994
O          1.03451        1.50288        0.31450
C          0.90607        3.90478        0.31711
H          0.66309        4.21815        1.34426
H          1.99755        3.88522        0.20764
H          0.45227        4.62373       -0.37660
C          5.16714       -0.75296       -0.80317
H          6.18266       -0.56884       -1.10201
