30
Benzo13dioxol_H8_deriv1_Int1_Sub26.log	Energy: -1207359.1897447
C          0.17640       -0.76415        1.42212
C         -1.21228       -0.72654        1.38009
C          0.81258       -1.58596        0.44147
C         -1.93807       -1.42525        0.43586
O         -2.08354       -0.03898        2.17232
C          0.03164       -2.33117       -0.48895
H          1.87157       -1.82874        0.54597
C         -1.35270       -2.25362       -0.51855
O         -3.25469       -1.16872        0.62390
C         -3.31250       -0.11650        1.53915
Cl         0.85166       -3.34945       -1.61077
H         -1.94604       -2.79689       -1.25263
H         -4.12460       -0.26626        2.25918
Cl        -3.68352        1.43424        0.67796
O          2.87692        0.47141        0.11883
C          3.26344        0.71803        1.33952
O          2.53604        0.77085        2.31656
C          4.75330        0.95500        1.42966
H          5.30294        0.20441        0.84564
H          4.98248        1.93962        0.99490
H          5.06775        0.93846        2.47987
H          0.77610       -0.26721        2.19317
Pd         0.97919        0.44508       -0.39506
O          0.73403        2.20707       -1.57106
C         -0.45348        1.84798       -1.79165
O         -0.82995        0.73719       -1.28508
C         -1.39546        2.65275       -2.61482
H         -1.48539        2.18893       -3.60896
H         -2.38864        2.64031       -2.14602
H         -1.02522        3.67854       -2.72789
