32
Benzoisoxazole_H8_deriv1_Int1_Sub2.log	Energy: -930448.9304186
C         -0.30410       -1.27575       -0.69770
C         -0.33667       -1.54899        0.69825
C         -1.49192       -0.77782       -1.27066
C         -1.53017       -1.33466        1.42137
C          0.50506       -2.18798        1.68216
C         -2.65753       -0.51894       -0.52690
Cl        -1.48853       -0.46260       -2.96684
C         -2.67486       -0.82083        0.84452
O         -1.36466       -1.75095        2.68565
H          1.53461       -2.52407        1.57584
N         -0.10112       -2.28215        2.82320
C         -3.86420        0.06912       -1.18482
H         -3.57502       -0.65603        1.43810
O          2.40580       -0.45024        0.20195
C          2.93710       -0.61199       -0.98232
O          2.35485       -0.39919       -2.03018
C          4.36744       -1.09056       -0.91771
H          4.69625       -1.40792       -1.91430
H          5.00381       -0.26357       -0.56854
H          4.47386       -1.91097       -0.19458
H          0.52047       -1.56827       -1.35091
Pd         0.67797        0.49682        0.26655
O          1.20219        2.50363        0.62706
C         -0.02675        2.78939        0.68578
O         -0.85513        1.83423        0.52257
C         -0.49572        4.17345        0.96566
H          0.20333        4.90179        0.53541
H         -1.50897        4.31955        0.57149
H         -0.51779        4.32267        2.05631
H         -4.69761        0.15959       -0.47659
H         -4.18715       -0.54339       -2.04011
H         -3.63003        1.06949       -1.58154
