33
Benzofuran_H13_deriv1_Int1_Sub22.log	Energy: -920412.9963117
C         -0.06228       -1.34742        0.17253
C         -1.48965       -1.11357        0.26394
C          0.23749       -1.15619       -1.19482
C         -1.91477       -0.80087       -1.03184
C         -2.41075       -1.11519        1.31554
Cl         1.52617       -1.76915       -2.12459
O         -0.87112       -0.84890       -1.91250
C         -3.22625       -0.47467       -1.33635
C         -3.74411       -0.81096        1.04598
H         -2.08444       -1.34688        2.33176
C         -4.12629       -0.49523       -0.27653
H         -3.52902       -0.21905       -2.35215
C         -4.77486       -0.81390        2.13819
H         -5.17425       -0.25336       -0.47364
O          2.66204       -0.19759        0.30549
C          2.92298       -0.87577        1.38689
O          2.09837       -1.25358        2.20269
C          4.39915       -1.16874        1.52933
H          4.76741       -1.68067        0.62880
H          4.95448       -0.22353        1.61528
H          4.57053       -1.78801        2.41745
H          0.57876       -1.81539        0.92410
Pd         0.88348        0.58227       -0.03180
O          1.20141        2.67421        0.25066
C          0.00493        2.86590       -0.09997
O         -0.69361        1.84523       -0.40862
C         -0.57600        4.23512       -0.18379
H         -1.67063        4.19020       -0.13117
H         -0.16758        4.86549        0.61653
H         -0.28552        4.68050       -1.14782
H         -5.30685        0.14895        2.18735
H         -4.31892       -0.99824        3.12046
H         -5.53301       -1.59504        1.96775
