35
Benzofuran_H14_Int1_Sub15.log	Energy: -666810.8720455
C          0.31889       -0.77077       -1.57080
C         -0.27831       -1.30322       -0.41124
O         -0.58115       -0.05946       -2.28740
C         -1.64883       -0.85122       -0.44954
H          0.14024       -2.12245        0.17332
C         -1.76665       -0.08515       -1.61619
C         -2.75060       -0.99501        0.42528
C         -2.93594        0.54519       -2.01337
C         -3.94756       -0.37444        0.02564
N         -2.62737       -1.70666        1.58144
C         -4.02294        0.36603       -1.15982
H         -2.99021        1.13738       -2.92579
H         -4.83434       -0.45404        0.65438
H         -4.97754        0.83210       -1.41626
O          2.34897       -1.06751        0.68859
C          3.23687       -1.49532       -0.16653
O          3.23697       -1.25933       -1.36248
C          4.31095       -2.33241        0.49036
H          4.94929       -1.67695        1.10173
H          3.86515       -3.07487        1.16654
H          4.92042       -2.82406       -0.27698
H          1.26825       -1.02144       -2.05278
Pd         1.04140        0.32247        0.16675
O          1.71291        2.12026        1.14358
C          0.68894        2.69286        0.68415
O         -0.11702        1.99970       -0.02055
C          0.42745        4.14192        0.91666
H          0.93545        4.71893        0.12846
H         -0.64826        4.34992        0.85976
H          0.83970        4.44977        1.88580
H         -1.68931       -1.93537        1.87582
C         -3.67071       -1.80516        2.56017
H         -3.32285       -2.42477        3.39674
H         -4.56896       -2.28885        2.14111
H         -3.97472       -0.82146        2.96513
