35
Benzofuran_H9_deriv1_Int1_Sub31.log	Energy: -955129.2594292
C         -0.13940        0.51083       -1.39027
C         -1.47662        0.40705       -1.05053
C          0.63166        1.45952       -0.65163
C         -2.10331        1.17242       -0.05279
O         -2.37695       -0.46502       -1.59246
C         -0.01425        2.27335        0.33680
H          1.60408        1.77946       -1.03047
C         -1.34516        2.13644        0.65424
C         -3.45474        0.73131        0.00049
C         -3.54814       -0.25972       -0.95950
Cl         0.94877        3.45533        1.15165
H         -1.79379        2.75250        1.43383
H         -4.24802        1.07625        0.65645
N         -4.57878       -1.01712       -1.37473
O          2.94242       -0.26416       -0.60523
C          3.06309       -0.70812       -1.82334
O          2.14493       -1.05142       -2.54956
C          4.50759       -0.77336       -2.26790
H          5.03258        0.15821       -2.01551
H          5.01122       -1.58811       -1.72622
H          4.55605       -0.96597       -3.34624
H          0.32345       -0.05191       -2.20728
Pd         1.21874       -0.36977        0.34566
O          1.48615       -1.97581        1.73839
C          0.34592       -1.71015        2.20218
O         -0.30707       -0.75393        1.66893
C         -0.22202       -2.45810        3.36101
H         -1.31846       -2.42641        3.33472
H          0.14295       -3.49295        3.35844
H          0.11809       -1.97629        4.29072
H         -4.35448       -1.78098       -1.99801
C         -5.85915       -0.97151       -0.72617
H         -6.56469       -1.60962       -1.27249
H         -6.26139        0.05460       -0.73173
H         -5.81585       -1.31711        0.32270
