30
Benzo13dioxol_H8_deriv1_Int1_Sub10.log	Energy: -1207351.1373110
C          0.05761       -0.42477        1.69284
C         -1.19391        0.15850        1.80224
C          0.23073       -1.36734        0.63449
C         -2.22716       -0.15060        0.92904
O         -1.62593        1.10027        2.67702
C         -0.84976       -1.71134       -0.22455
H          1.10539       -2.01897        0.64520
C         -2.09252       -1.08859       -0.09783
O         -3.30948        0.58200        1.22081
C         -2.88930        1.52197        2.20587
Cl        -0.60162       -2.90656       -1.42914
Cl        -3.40639       -1.40285       -1.14671
H         -3.61478        1.53306        3.03264
H         -2.80656        2.51992        1.73703
O          2.84174       -0.41457       -0.29974
C          3.46994       -0.66452        0.81445
O          2.99262       -0.56466        1.93168
C          4.89934       -1.09560        0.57946
H          4.94708       -1.86658       -0.20176
H          5.47906       -0.23200        0.22071
H          5.33296       -1.46518        1.51616
H          0.88265       -0.25476        2.38736
Pd         1.06938        0.42450       -0.32183
O          1.41342        2.17148       -1.49141
C          0.18506        2.43429       -1.40947
O         -0.54863        1.62016       -0.75353
C         -0.40075        3.66046       -2.01951
H         -1.44958        3.48602       -2.29120
H         -0.36384        4.47436       -1.27876
H          0.18681        3.96485       -2.89452
