30
Benzene_H10_Int1_Sub8.log	Energy: -825450.5114428
C         -0.17449       -1.77997       -0.62955
C          1.17464       -1.70483       -1.06035
C         -0.47297       -1.72419        0.75429
C          2.19699       -1.55611       -0.14297
H          1.39758       -1.76282       -2.12837
C          0.59121       -1.59695        1.68301
H         -1.48922       -1.89610        1.11734
C          1.89034       -1.50594        1.23997
C          3.61936       -1.45232       -0.59468
H          0.36455       -1.56774        2.75038
H          2.70592       -1.37887        1.95603
O         -2.58655       -0.21236       -0.83628
C         -3.51490       -0.46131        0.04805
O         -3.32167       -0.57039        1.24608
C         -4.88534       -0.59381       -0.57429
H         -5.59041       -0.99250        0.16466
H         -5.22414        0.39943       -0.90522
H         -4.84832       -1.23853       -1.46317
H         -0.96034       -2.03295       -1.34435
Pd        -0.81027        0.30722       -0.15885
O         -0.80997        2.42915       -0.23500
C          0.39243        2.40750        0.15047
O          0.91758        1.26640        0.36128
C          1.17322        3.65344        0.38194
H          1.01001        3.98342        1.41956
H          2.24347        3.45387        0.24422
H          0.82741        4.44837       -0.29066
Cl         4.31367        0.16676       -0.25238
H          4.25816       -2.17760       -0.07143
H          3.70717       -1.62048       -1.67531
