38
Benzooxazole_H10_Int1_Sub5.log	Energy: -691457.7358506
C         -0.10793       -1.14765        1.03178
C          0.16249       -1.63945       -0.28835
C          0.91230       -0.63014        1.87417
C          1.48033       -1.59011       -0.78848
C         -0.91982       -2.39488       -1.03379
C          2.17002       -0.60066        1.32865
H          0.68127       -0.27460        2.87825
C          2.47034       -1.06841        0.02749
H          1.72576       -1.95618       -1.78561
O          3.32943       -0.13214        1.86188
N          3.82448       -0.87748       -0.19765
C          4.24791       -0.33900        0.88997
H          5.26680       -0.03109        1.12531
O         -2.48435        0.13152       -0.03461
C         -3.04730        0.32735        1.12836
O         -2.44192        0.63853        2.13891
C         -4.54367        0.12674        1.09456
H         -4.79518       -0.82412        0.60402
H         -4.94418        0.15122        2.11486
H         -5.00162        0.93077        0.49938
H         -1.08015       -1.35259        1.48255
Pd        -0.58775        0.65658       -0.13739
O         -0.63958        2.59707       -1.00582
C          0.62030        2.61538       -0.96827
O          1.20907        1.58371       -0.50519
C          1.40408        3.80198       -1.41169
H          2.37370        3.48527       -1.81680
H          0.83595        4.37669       -2.15349
H          1.58918        4.44642       -0.53839
H         -1.87582       -2.10306       -0.57313
C         -0.99546       -2.02753       -2.51094
H         -1.83442       -2.55375       -2.99020
H         -1.15471       -0.94662       -2.64185
H         -0.07993       -2.30870       -3.05535
C         -0.72148       -3.89830       -0.83061
H         -0.69718       -4.16058        0.23791
H         -1.54240       -4.46142       -1.30064
H          0.22433       -4.23920       -1.28147
