42
Benzofuran_H13_deriv1_Int1_Sub12.log	Energy: -994362.0560550
C          0.63644       -1.28373        0.74870
C         -0.63304       -0.99453        1.38392
C          0.34337       -1.30374       -0.63145
C         -1.57048       -0.85037        0.35160
C         -1.02460       -0.82201        2.71408
Cl         1.14546       -2.09461       -1.90978
O         -0.97037       -1.06648       -0.86265
C         -2.91148       -0.50779        0.53955
C         -2.35706       -0.51414        2.94443
H         -0.30502       -0.92201        3.52821
C         -3.26605       -0.35948        1.88462
C         -3.87158       -0.30081       -0.62734
H         -2.71304       -0.37760        3.96778
H         -4.29755       -0.10533        2.12964
O          3.13003       -0.20051       -0.42950
C          3.83583       -0.70340        0.54382
O          3.43149       -0.91554        1.67483
C          5.25045       -1.01819        0.11404
H          5.23715       -1.67170       -0.76984
H          5.76052       -0.08852       -0.17723
H          5.78970       -1.50013        0.93780
H          1.54350       -1.65419        1.23216
Pd         1.34100        0.56669       -0.12190
O          1.64811        2.67171       -0.35468
C          0.40669        2.83122       -0.20666
O         -0.30705        1.79086       -0.01743
C         -0.23189        4.17540       -0.27482
H         -1.02368        4.25194        0.48211
H          0.51873        4.96302       -0.13918
H         -0.70002        4.29205       -1.26437
C         -5.27650        0.05282       -0.13999
H         -5.93948        0.19320       -1.00678
H         -5.70904       -0.74566        0.48235
H         -5.28655        0.98876        0.43925
C         -3.35189        0.85345       -1.49936
H         -2.35371        0.64085       -1.90439
H         -4.03866        1.02391       -2.34345
H         -3.28178        1.78232       -0.91398
C         -3.95526       -1.59100       -1.45763
H         -4.65077       -1.45097       -2.30002
H         -2.97790       -1.87477       -1.87070
H         -4.32671       -2.42713       -0.84535
