33
Benzofuran_H9_Int1_Sub6.log	Energy: -632089.6450771
C          0.16909       -1.52444       -0.19476
C          1.51162       -1.39456       -0.60352
C         -0.08299       -1.41837        1.20541
C          2.57123       -1.12859        0.26364
O          1.95468       -1.48993       -1.87188
C          1.00752       -1.11939        2.09116
C         -1.35985       -1.94640        1.80079
C          2.29928       -0.97864        1.64513
C          3.73739       -1.06275       -0.56773
C          3.29368       -1.28940       -1.83438
H          0.78870       -1.03786        3.15842
H          3.10662       -0.75779        2.34647
H          4.76419       -0.87044       -0.26619
H          3.80362       -1.34251       -2.79306
O         -2.47333        0.22299        0.06921
C         -3.06957       -0.59044       -0.75175
O         -2.52996       -1.43467       -1.44755
C         -4.57035       -0.39654       -0.74656
H         -4.95897       -0.51606        0.27511
H         -4.81121        0.62744       -1.06666
H         -5.04083       -1.12329       -1.41907
H         -0.61553       -1.86876       -0.87884
Pd        -0.53780        0.56358        0.15695
O         -0.54970        2.66446       -0.14808
C          0.70230        2.66862        0.01028
O          1.26857        1.55562        0.25830
C          1.50278        3.91857       -0.12075
H          2.43779        3.83452        0.44696
H          1.75070        4.06623       -1.18327
H          0.91345        4.78116        0.21525
H         -2.08073       -2.21386        1.02044
H         -1.82551       -1.22202        2.48377
H         -1.12828       -2.85523        2.37919
