36
Benzoisoxazole_H8_deriv1_Int1_Sub32.log	Energy: -713939.6148855
C          0.27622        1.31144        1.09670
C          0.18020        1.75721       -0.25127
C         -0.92165        0.93696        1.73466
C         -1.09298        1.83826       -0.86532
C          1.03797        2.35599       -1.24646
C         -2.15817        0.99495        1.08647
H         -0.87012        0.59253        2.77002
C         -2.26152        1.46306       -0.23404
O         -0.95797        2.37014       -2.08942
H          2.11682        2.49749       -1.21222
N          0.36554        2.69056       -2.30189
C         -3.42559        0.60680        1.81703
H         -3.23331        1.52135       -0.72567
O          2.71436        0.15936       -0.03247
C          3.28585       -0.06138        1.12361
O          2.69137       -0.43241        2.11933
C          4.77418        0.18780        1.09553
H          5.16763        0.19260        2.11887
H          5.25913       -0.61570        0.52112
H          5.00224        1.13515        0.58785
H          1.19762        1.38226        1.67549
Pd         0.84820       -0.45402       -0.17964
O          1.00734       -2.42673       -0.91361
C         -0.25155       -2.48615       -0.96418
O         -0.89929       -1.44722       -0.60566
C         -0.96743       -3.71850       -1.39348
H         -0.28399       -4.39119       -1.92513
H         -1.35342       -4.23214       -0.49959
H         -1.82432       -3.45225       -2.02672
H         -3.83812        1.50492        2.30815
H         -3.17791       -0.11503        2.62057
O         -4.42523        0.11907        0.98119
C         -4.19706       -1.19416        0.53970
H         -3.23955       -1.29360       -0.00201
H         -4.19082       -1.90424        1.38948
H         -5.02359       -1.46249       -0.13229
