32
Benzoisoxazole_H11_deriv1_Int1_Sub14.log	Energy: -930454.3928823
C         -0.01063       -0.85552        1.32592
C         -1.18663       -0.18776        1.73513
C         -0.12883       -1.57680        0.11194
C         -2.36670       -0.20181        1.00348
O         -1.34043        0.55302        2.83478
C         -1.35532       -1.59539       -0.62574
H          0.65937       -2.27188       -0.18361
C         -2.48823       -0.91432       -0.22080
C         -3.22486        0.62160        1.79588
N         -2.61331        1.05303        2.86304
Cl        -1.35742       -2.49791       -2.10301
C         -3.75075       -0.88582       -1.01554
H         -4.26045        0.91408        1.62594
O          2.59472       -0.67821       -0.28964
C          3.29169       -0.79954        0.80901
O          2.90331       -0.50432        1.92500
C          4.67428       -1.34993        0.54779
H          5.27907       -0.57242        0.05737
H          5.14395       -1.63352        1.49697
H          4.62866       -2.20799       -0.13655
H          0.86989       -0.94124        1.97262
Pd         0.90973        0.33553       -0.30993
O          1.42899        2.12751       -1.31276
C          0.21904        2.48055       -1.24883
O         -0.59996        1.67106       -0.69930
C         -0.24150        3.80121       -1.75715
H          0.40212        4.13571       -2.58018
H         -1.29040        3.74296       -2.07396
H         -0.16761        4.53440       -0.93896
H         -3.67568       -0.12821       -1.81332
H         -4.61487       -0.63149       -0.38796
H         -3.93472       -1.85268       -1.50287
