36
Benzothiophene_H9_deriv1_Int1_Sub22.log	Energy: -859376.1853765
C          0.04640       -1.47943        0.18943
C          1.34371       -1.26602       -0.32903
C         -0.22187       -1.01850        1.50250
C          2.33579       -0.61574        0.42256
S          1.91668       -1.70950       -1.89741
C          0.79212       -0.37652        2.29274
H         -1.14734       -1.33514        1.99013
C          2.03698       -0.18077        1.74053
C          3.57039       -0.48419       -0.30150
C          3.46643       -1.03502       -1.55001
C          0.45402        0.06112        3.68467
H          2.81374        0.31964        2.32443
C          4.79014        0.17889        0.24821
H          4.24888       -1.07872       -2.30792
O         -2.81094       -0.39919        0.40987
C         -3.24226       -1.26545       -0.46607
O         -2.57710       -1.74043       -1.36993
C         -4.69474       -1.62520       -0.25057
H         -4.88852       -1.84054        0.80926
H         -5.32041       -0.76372       -0.52843
H         -4.95965       -2.48614       -0.87564
H         -0.68295       -2.08495       -0.35639
Pd        -1.06542        0.46778        0.11197
O         -1.56265        2.32771       -0.78568
C         -0.33808        2.63341       -0.75898
O          0.47153        1.78663       -0.26087
C          0.14845        3.94902       -1.26274
H         -0.44286        4.25835       -2.13420
H          0.00891        4.70308       -0.47285
H          1.21503        3.89150       -1.51224
H          0.12200       -0.79104        4.29918
H         -0.36998        0.79215        3.67723
H          1.31694        0.52474        4.18155
H          5.13630       -0.31887        1.16828
H          4.58502        1.23104        0.50356
H          5.61594        0.16132       -0.47559
