34
Benzoisoxazole_H11_Int1_Sub15.log	Energy: -676843.4721194
C          0.43405       -1.04507       -1.27793
C          1.81464       -0.92117       -1.18318
C         -0.24004       -1.49718       -0.10975
C          2.51814       -1.24369       -0.01687
O          2.67136       -0.47215       -2.12319
C          0.47976       -1.86170        1.09497
H         -1.25753       -1.86431       -0.24413
C          1.87019       -1.71704        1.12959
C          3.86648       -0.93424       -0.38844
N          3.93210       -0.49173       -1.61191
N         -0.21738       -2.33294        2.16095
H          2.43220       -1.96888        2.03114
H          4.78162       -1.02011        0.19658
O         -2.52252        0.30637       -0.06651
C         -3.03889       -0.16614       -1.16648
O         -2.40713       -0.62411       -2.10246
C         -4.54855       -0.08131       -1.17413
H         -4.84581        0.97258       -1.28252
H         -4.94892       -0.66127       -2.01406
H         -4.96319       -0.43924       -0.22169
H         -0.14313       -0.89340       -2.19183
Pd        -0.58870        0.62522        0.12756
O         -0.52758        2.70173        0.61142
C          0.72125        2.59812        0.74583
O          1.23884        1.44480        0.57700
C          1.58167        3.77469        1.05341
H          1.00452        4.53831        1.58923
H          2.45930        3.46269        1.63377
H          1.93524        4.20608        0.10408
H          0.30633       -2.50785        3.00592
C         -1.65328       -2.34215        2.24177
H         -1.95145       -2.56943        3.27297
H         -2.10367       -3.10903        1.58741
H         -2.08457       -1.36539        1.95932
