45
Benzoisoxazole_H9_Int1_Sub27.log	Energy: -764638.5744809
C         -1.12014       -0.25463       -1.95389
C          0.14225        0.02206       -1.37087
C         -1.52015       -1.60318       -2.22338
C          0.97259       -1.08693       -1.05461
H          0.51886        1.04587       -1.34198
C         -0.71280       -2.67188       -1.91762
H         -2.49424       -1.76794       -2.68755
C          0.52826       -2.37678       -1.31907
C          2.24593       -1.30061       -0.42704
H         -1.00885       -3.70318       -2.11273
O          1.44187       -3.25775       -0.91325
C          3.18517       -0.29519        0.15094
N          2.50360       -2.57986       -0.35591
O         -1.37983        2.10463       -0.11271
C         -2.39991        2.60308       -0.76106
O         -3.25308        1.94115       -1.32374
C         -2.41827        4.11344       -0.73491
H         -1.42928        4.51786       -0.99127
H         -3.18013        4.48642       -1.42945
H         -2.65427        4.45071        0.28546
H         -1.73832        0.55572       -2.34633
Pd        -1.38437        0.16101        0.21650
O         -2.14906       -0.05053        2.18642
C         -1.93301       -1.29119        2.10336
O         -1.42800       -1.72757        1.01673
C         -2.27777       -2.22711        3.20866
H         -2.32396       -1.68858        4.16296
H         -3.26705       -2.66400        3.00225
H         -1.54716       -3.04521        3.25177
H          4.03743       -0.86849        0.55398
C          2.52853        0.46605        1.31223
H          2.18497       -0.25089        2.07487
H          1.62437        0.98537        0.94727
C          3.48456        1.48654        1.91742
H          2.97839        2.04053        2.72376
H          4.33202        0.95585        2.38767
C          4.01669        2.44801        0.86032
H          4.73098        3.15609        1.30998
H          3.17998        3.05591        0.47061
C          4.67082        1.69618       -0.29395
H          5.57097        1.17277        0.07552
H          5.01776        2.40004       -1.06724
C          3.71999        0.67578       -0.90878
H          2.87272        1.20578       -1.37926
H          4.21887        0.11047       -1.71184
