32
Benzoisoxazole_H11_Int1_Sub25.log	Energy: -828871.6689588
C         -0.55562       -1.55878       -0.08486
C          0.77524       -1.28626       -0.47669
C         -0.80829       -1.41692        1.30415
C          1.76631       -0.87867        0.40642
O          1.26952       -1.34343       -1.71935
C          0.21991       -1.02504        2.22050
H         -1.76104       -1.77224        1.70245
C          1.49452       -0.74933        1.78918
C          2.88307       -0.69829       -0.46497
N          2.57706       -0.97368       -1.70136
H         -0.02918       -0.95350        3.28050
H          2.27843       -0.44440        2.48349
C          4.24867       -0.18873       -0.10571
O         -3.34860       -0.34350        0.42179
C         -3.84659       -1.08907       -0.52940
O         -3.21432       -1.55299       -1.46135
C         -5.33062       -1.31426       -0.36066
H         -5.86069       -0.38477       -0.61775
H         -5.66024       -2.11774       -1.02980
H         -5.57403       -1.55119        0.68387
H         -1.29086       -1.98840       -0.77469
Pd        -1.53798        0.40584        0.25159
O         -1.89364        2.44426       -0.19199
C         -0.64625        2.63839       -0.16779
O          0.09458        1.63546        0.10395
C         -0.04894        3.96499       -0.47621
H         -0.73217        4.76769       -0.17170
H          0.92690        4.06682        0.01479
H          0.10095        4.03447       -1.56489
F          5.15626       -0.50060       -1.01469
F          4.62776       -0.70549        1.06881
F          4.23163        1.13762        0.03276
