34
Benzoisoxazole_H11_Int1_Sub31.log	Energy: -676845.1804010
C         -0.17158       -1.57095       -0.02836
C          1.13995       -1.35585       -0.51505
C         -0.34652       -1.36118        1.36444
C          2.19529       -0.93201        0.28768
O          1.53832       -1.50243       -1.77167
C          0.73853       -0.95083        2.19668
H         -1.28481       -1.67150        1.82899
C          1.99101       -0.72694        1.67198
C          3.27934       -0.82971       -0.65986
N          2.87279       -1.16497       -1.86509
H          0.55810       -0.81787        3.26445
H          2.80461       -0.40207        2.32030
N          4.57295       -0.47288       -0.44213
O         -2.90752       -0.32075        0.52980
C         -3.46135       -1.04774       -0.40433
O         -2.88740       -1.49092       -1.38231
C         -4.93253       -1.28135       -0.14816
H         -5.47826       -0.34350       -0.33125
H         -5.30610       -2.05872       -0.82508
H         -5.10636       -1.56107        0.89985
H         -0.94490       -2.02045       -0.65974
Pd        -1.10585        0.42250        0.25519
O         -1.48291        2.44828       -0.23914
C         -0.23608        2.64219       -0.27503
O          0.52183        1.65554        0.00062
C          0.33988        3.96036       -0.66028
H         -0.34730        4.76969       -0.38379
H          1.32235        4.09882       -0.19176
H          0.47184        3.97652       -1.75330
H          5.11724       -0.37266       -1.28896
C          5.00523        0.25028        0.72218
H          6.05068        0.55343        0.58149
H          4.97524       -0.37873        1.62722
H          4.41066        1.16241        0.91361
