49
Benzothiophene_H13_deriv1_Int1_Sub3.log	Energy: -1168622.5785232
C         -0.19157       -0.72929        0.57204
C         -1.45096       -1.25563        0.08294
C          0.85371       -0.89086       -0.36103
C         -1.33604       -1.79432       -1.21405
C         -2.71204       -1.24454        0.70283
C          2.32235       -0.91947       -0.05427
S          0.29112       -1.67701       -1.83082
C         -2.43792       -2.31897       -1.89072
C         -3.80684       -1.78099        0.04036
C         -2.86393       -0.61855        2.06312
C         -3.66724       -2.31792       -1.24670
H         -2.33459       -2.72206       -2.89986
H         -4.78202       -1.77498        0.52832
H         -4.54130       -2.73480       -1.75137
O          1.47027        1.93990        0.80428
C          1.69236        1.67399        2.05817
O          1.21427        0.74969        2.69443
C          2.66871        2.65028        2.67617
H          3.60218        2.66371        2.09503
H          2.24859        3.66561        2.63657
H          2.87105        2.36573        3.71527
H          0.03006       -0.47939        1.61739
Pd         0.06746        1.20388       -0.36607
O         -0.59706        3.02208       -1.26729
C         -1.40278        2.34468       -1.96160
O         -1.40517        1.08054       -1.79925
C         -2.30556        2.98204       -2.96071
H         -1.73571        3.16314       -3.88509
H         -3.15062        2.32112       -3.18901
H         -2.65522        3.95196       -2.58403
F         -4.11507       -0.71175        2.51714
F         -2.54526        0.68096        2.03309
F         -2.06542       -1.19893        2.96306
H          2.44048       -0.37294        0.89236
C          3.18091       -0.24617       -1.12537
H          2.84784        0.79450       -1.25935
H          3.02763       -0.76245       -2.09184
C          4.65709       -0.28931       -0.75087
H          5.26128        0.17236       -1.54788
H          4.81064        0.32877        0.15203
C          5.13002       -1.71230       -0.47509
H          6.18682       -1.71166       -0.16338
H          5.08243       -2.29818       -1.41111
C          4.26526       -2.38934        0.58254
H          4.39741       -1.87302        1.55009
H          4.59007       -3.43041        0.73957
C          2.79016       -2.36112        0.20057
H          2.62821       -2.96287       -0.71109
H          2.17280       -2.81363        0.99276
