33
Benzofuran_H14_Int1_Sub14.log	Energy: -632099.6934113
C          0.07936       -1.07848       -1.31650
C         -0.31768       -1.45102       -0.01836
O         -0.96268       -0.57212       -2.01398
C         -1.72966       -1.13023        0.05277
H          0.24163       -2.11432        0.64048
C         -2.05156       -0.58149       -1.19544
C         -2.70164       -1.23412        1.06170
C         -3.31708       -0.11647       -1.52052
C         -3.97929       -0.77980        0.73669
C         -2.35547       -1.78958        2.40750
C         -4.27946       -0.23511       -0.52270
H         -3.53303        0.31486       -2.49810
H         -4.76969       -0.84266        1.48866
H         -5.29697        0.10970       -0.72079
O          2.36371       -0.77612        0.70502
C          3.19158       -1.26766       -0.17591
O          3.02901       -1.25068       -1.38402
C          4.41973       -1.87147        0.46555
H          5.04502       -1.06148        0.87020
H          4.13888       -2.51768        1.30853
H          4.98994       -2.43519       -0.28212
H          0.99533       -1.30986       -1.86796
Pd         0.85523        0.36314        0.13472
O          1.43697        2.35399        0.67947
C          0.30840        2.74482        0.27690
O         -0.49625        1.86659       -0.18021
C         -0.07771        4.18379        0.29491
H          0.27705        4.65202       -0.63632
H         -1.16895        4.28619        0.34208
H          0.40450        4.69323        1.13869
H         -1.54679       -1.20562        2.87597
H         -1.99877       -2.82932        2.33154
H         -3.22172       -1.77691        3.08239
