45
Benzoisoxazole_H10_Int1_Sub27.log	Energy: -764636.3820633
C          1.27459       -1.50406        1.00241
C          0.20969       -1.12368        1.87288
C          1.05912       -1.67685       -0.39061
C         -1.05860       -0.89582        1.39223
H          0.42769       -1.01017        2.93580
C         -0.26959       -1.46682       -0.83339
H          1.80668       -2.14344       -1.03452
C         -1.29854       -1.06206        0.00755
H         -1.86063       -0.59044        2.06575
O         -0.71524       -1.57225       -2.08457
C         -2.40879       -0.91569       -0.89570
N         -2.04639       -1.22321       -2.11263
C         -3.79976       -0.45069       -0.61782
O          3.67443       -0.51121       -0.54269
C          4.48984       -0.73570        0.45382
O          4.19001       -0.63893        1.63041
C          5.87292       -1.12699       -0.01045
H          6.45786       -1.49554        0.84046
H          5.81720       -1.88656       -0.80224
H          6.36774       -0.24303       -0.44002
H          2.23586       -1.77787        1.44356
Pd         1.94323        0.32360       -0.11772
O          2.27283        2.39562       -0.40412
C          1.04848        2.59600       -0.16832
O          0.32709        1.57920        0.09341
C          0.46505        3.96589       -0.19254
H          0.64682        4.41960       -1.17737
H         -0.61076        3.93045        0.01582
H          0.97541        4.58930        0.55587
H         -4.32875       -0.48329       -1.58570
C         -3.81007        1.00126       -0.11943
H         -3.30763        1.64603       -0.85766
H         -3.21279        1.07406        0.80660
C         -5.23039        1.48433        0.14867
H         -5.21041        2.51529        0.53684
H         -5.78499        1.52326       -0.80611
C         -5.96331        0.56222        1.11712
H         -6.99763        0.90967        1.26968
H         -5.47147        0.60955        2.10599
C         -5.95547       -0.88018        0.62246
H         -6.54060       -0.94733       -0.31228
H         -6.45556       -1.54096        1.34841
C         -4.53800       -1.37469        0.35842
H         -3.98330       -1.41908        1.31254
H         -4.55062       -2.40102       -0.04126
