34
Benzofuran_H9_deriv1_Int1_Sub32.log	Energy: -967580.8656095
C         -0.26299       -0.18558       -1.38692
C         -1.57606        0.00300       -0.97310
C          0.58230        0.96103       -1.33681
C         -2.09859        1.22399       -0.52394
O         -2.53796       -0.96119       -0.90423
C          0.04309        2.22003       -0.91325
H          1.53943        0.95520       -1.86128
C         -1.26011        2.36469       -0.49984
C         -3.45661        0.97181       -0.17025
C         -3.64482       -0.36385       -0.42470
Cl         1.10340        3.58454       -0.92327
H         -1.62782        3.33291       -0.15930
H         -4.20064        1.65702        0.22363
O         -4.72178       -1.09844       -0.27497
O          2.75459       -0.74765       -0.52820
C          2.71638       -1.83301       -1.24840
O          1.70741       -2.45198       -1.54363
C          4.09289       -2.27592       -1.69008
H          4.66697       -1.42476       -2.08114
H          4.63926       -2.66411       -0.81734
H          4.00406       -3.06469       -2.44645
H          0.09979       -1.13224       -1.80153
Pd         1.15415       -0.14315        0.45091
O          1.52517       -0.73112        2.46690
C          0.45142       -0.15725        2.79404
O         -0.21960        0.41343        1.87249
C         -0.04381       -0.16604        4.19976
H         -0.73004        0.67285        4.36911
H         -0.58724       -1.10729        4.37544
H          0.80337       -0.12870        4.89649
C         -4.64339       -2.48235       -0.57669
H         -4.38347       -2.64204       -1.63376
H         -3.89454       -2.98249        0.05569
H         -5.63860       -2.89171       -0.37161
