44
Benzoisoxazole_H9_deriv1_Int1_Sub6.log	Energy: -740737.5905693
C         -0.37316       -1.48335        0.58744
C         -0.25704       -1.68664       -0.81374
C          0.71040       -0.96668        1.37224
C          1.00479       -1.32320       -1.36206
C         -1.24394       -2.48997       -1.60326
C          1.92683       -0.59559        0.84061
H          0.52145       -0.84950        2.43880
C          2.02075       -0.80639       -0.56265
C          1.59212       -1.32855       -2.66260
C          3.06151        0.02404        1.64170
O          3.08317       -0.53892       -1.33059
H          1.16726       -1.65080       -3.61284
N          2.80924       -0.86783       -2.63622
O         -3.02787       -0.55747       -0.04224
C         -3.48148       -0.51724        1.18392
O         -2.82617       -0.14682        2.14129
C         -4.91574       -0.97553        1.29487
H         -5.06521       -1.91985        0.75298
H         -5.18751       -1.08982        2.35085
H         -5.56942       -0.22409        0.82725
H         -1.22087       -1.91382        1.12258
Pd        -1.26930        0.31212       -0.26342
O         -1.72875        2.34038       -0.71493
C         -0.49295        2.56906       -0.81558
O          0.30188        1.58635       -0.64651
C          0.03658        3.93522       -1.08255
H         -0.68481        4.51290       -1.67383
H          0.18163        4.44793       -0.11892
H          1.00651        3.87422       -1.59196
C          2.69578        0.14102        3.12051
H          3.53529        0.59213        3.67003
H          1.81447        0.78202        3.27473
H          2.49345       -0.84205        3.57281
C          4.31854       -0.84936        1.50894
H          4.64221       -0.94110        0.46320
H          5.14564       -0.40229        2.08206
H          4.13765       -1.86020        1.90592
C          3.33671        1.43220        1.08847
H          4.13390        1.91394        1.67593
H          3.65707        1.39860        0.03826
H          2.43098        2.05332        1.14548
H         -1.33148       -2.11426       -2.63274
H         -2.23655       -2.45475       -1.13793
H         -0.90480       -3.53779       -1.65537
