38
Benzoisoxazole_H10_Int1_Sub13.log	Energy: -691433.4881254
C          0.00460       -0.99125        1.34982
C         -0.55362       -0.20594        2.41070
C         -0.70276       -1.27472        0.14487
C         -1.81232        0.32990        2.31173
H          0.05790       -0.04459        3.29961
C         -2.00076       -0.69188        0.10360
C         -0.28315       -2.38107       -0.79872
C         -2.54432        0.07448        1.12764
H         -2.23739        0.93361        3.11517
O         -2.88825       -0.80178       -0.89416
C         -3.83422        0.40763        0.61275
N         -4.02532       -0.11142       -0.56646
H         -4.62436        1.00656        1.06482
O          2.24397       -0.72471       -0.45647
C          3.17399       -0.67809        0.46176
O          3.05371       -0.09304        1.52320
C          4.42493       -1.42525        0.06790
H          5.09297       -1.51109        0.93300
H          4.17513       -2.41910       -0.32887
H          4.93451       -0.87192       -0.73509
H          0.91951       -1.54891        1.55758
Pd         0.72682        0.48557       -0.10046
O          1.29927        2.29707       -1.03870
C          0.19325        2.79624       -0.69184
O         -0.61343        2.04678       -0.05006
C         -0.15369        4.21462       -0.98310
H          0.36955        4.55451       -1.88544
H         -1.23997        4.32536       -1.09191
H          0.17540        4.83630       -0.13605
H          0.76545       -2.60426       -0.55222
C         -1.13099       -3.62454       -0.51942
H         -0.77892       -4.46608       -1.13504
H         -1.06856       -3.92668        0.53697
H         -2.18970       -3.44827       -0.76434
C         -0.33740       -1.97305       -2.26814
H          0.31936       -1.11216       -2.46167
H          0.00805       -2.80571       -2.89899
H         -1.35888       -1.71093       -2.57885
