33
Benzo13dioxol_H8_deriv1_Int1_Sub30.log	Energy: -943691.3692564
C         -0.20122       -1.02392        1.38608
C         -1.56769       -0.92967        1.22961
C          0.54488       -1.53853        0.27844
C         -2.19819       -1.33305        0.05125
O         -2.49860       -0.44581        2.08578
C         -0.13385       -1.98584       -0.89008
H          1.57452       -1.85888        0.44079
C         -1.51286       -1.87757       -1.02937
O         -3.51273       -1.10293        0.14458
C         -3.70926       -0.33829        1.34647
Cl         0.79022       -2.69876       -2.15772
H         -2.02679       -2.18530       -1.93877
H         -4.51277       -0.82215        1.92371
C         -4.00877        1.09579        1.00380
O          2.78420        0.30954        0.08027
C          3.22715        0.06754        1.28195
O          2.53061       -0.17818        2.25189
C          4.73518        0.13217        1.36069
H          5.19009       -0.43847        0.53939
H          5.05518        1.17870        1.24678
H          5.07167       -0.25053        2.33147
H          0.33448       -0.74958        2.29611
Pd         0.86449        0.56298       -0.23193
O          0.76794        2.58248       -0.91731
C         -0.46860        2.43671       -1.09333
O         -0.97564        1.29622       -0.82123
C         -1.33326        3.55526       -1.56626
H         -2.17341        3.16402       -2.15437
H         -1.74041        4.08091       -0.68842
H         -0.74258        4.26949       -2.15301
H         -4.12793        1.67951        1.92713
H         -4.93593        1.15656        0.41698
H         -3.17361        1.50347        0.41509
