39
Benzene_H10_Int1_Sub178.log	Energy: -611079.2821231
C         -0.27763       -1.51879       -1.27871
C          0.81466       -1.10060       -2.08101
C         -0.08223       -1.65746        0.11685
C          2.02236       -0.79709       -1.49666
H          0.68817       -1.02040       -3.16262
C          1.17885       -1.35370        0.68451
H         -0.85443       -2.10094        0.74968
C          2.23143       -0.90603       -0.09503
H          2.84271       -0.45724       -2.13232
H          1.29159       -1.47249        1.76153
C          3.58503       -0.51005        0.48773
O         -2.86063       -0.58839       -0.42677
C         -3.35403       -1.09353        0.67254
O         -2.74407       -1.20646        1.72059
C         -4.79352       -1.52504        0.51263
H         -5.10156       -2.11481        1.38410
H         -5.42800       -0.62950        0.43361
H         -4.92618       -2.10185       -0.41303
H         -1.19369       -1.89092       -1.74181
Pd        -1.11185        0.30389       -0.29115
O         -1.59715        2.33598        0.07300
C         -0.36587        2.60945        0.04238
O          0.44445        1.65402       -0.18793
C          0.13708        3.98803        0.30146
H          0.35659        4.08470        1.37609
H          1.06550        4.16475       -0.25652
H         -0.62852        4.72762        0.03643
C          3.62784       -0.68583        2.00540
H          4.61679       -0.38775        2.38469
H          2.87612       -0.05904        2.50846
H          3.46106       -1.73245        2.30260
C          4.68374       -1.38170       -0.13774
H          4.72568       -1.27191       -1.23155
H          5.66888       -1.09507        0.26242
H          4.51936       -2.44640        0.08843
C          3.84207        0.96977        0.16153
H          4.79710        1.29460        0.60372
H          3.89767        1.14580       -0.92295
H          3.03066        1.59852        0.55539
