36
Benzothiophene_H13_deriv1_Int1_Sub14.log	Energy: -1046123.1453187
C         -0.07157        0.59470       -1.11928
C          1.30818        0.51902       -0.68577
C         -0.43682       -0.54025       -1.86457
C          1.94648       -0.65021       -1.14141
C          2.02569        1.41025        0.13202
H         -1.31146       -0.61620       -2.51265
S          0.88765       -1.64922       -2.10695
C          3.27490       -0.96744       -0.81845
C          3.34372        1.12254        0.44634
C          1.34419        2.63088        0.68758
C          3.95485       -0.04680       -0.02706
C          3.90042       -2.23599       -1.30432
H          3.90574        1.81199        1.07723
H          4.99503       -0.24829        0.24057
O         -3.00688       -0.22443       -0.69136
C         -3.37687        1.02445       -0.79904
O         -2.65912        1.99298       -0.63079
C         -4.84042        1.15301       -1.15530
H         -5.10814        0.45572       -1.96080
H         -5.44428        0.88358       -0.27570
H         -5.06056        2.18689       -1.44618
H         -0.70228        1.49004       -1.05943
Pd        -1.28295       -0.73084        0.11647
O         -1.83617       -1.56456        1.99875
C         -0.61965       -1.83206        2.19760
O          0.21024       -1.53167        1.27713
C         -0.14891       -2.44252        3.47188
H         -0.92294       -3.10263        3.88314
H          0.79043       -2.98610        3.31161
H          0.03436       -1.63479        4.19735
F          2.18216        3.38464        1.40224
F          0.32818        2.29208        1.48810
F          0.84243        3.39825       -0.28430
H          3.88804       -2.28830       -2.40537
H          3.34238       -3.11117       -0.93264
H          4.94220       -2.32522       -0.96946
