45
Benzothiazole_H11_Int1_Sub11.log	Energy: -967286.9164795
C          0.90848       -0.25126       -1.46170
C          1.66976       -1.38705       -1.10340
C         -0.47585       -0.27418       -1.15848
C          1.07761       -2.49294       -0.47188
S          3.35900       -1.67579       -1.31253
C         -1.09102       -1.40349       -0.51712
H         -1.11002        0.50381       -1.58901
C         -0.30903       -2.48546       -0.18351
N          1.93512       -3.52090       -0.17733
C          3.13498       -3.22802       -0.55679
C         -2.55658       -1.35688       -0.17558
H         -0.73694       -3.35635        0.31712
H          3.99176       -3.89517       -0.43005
O         -0.04931        2.52221       -0.64190
C          0.83615        3.09883       -1.40911
O          1.92905        2.63509       -1.68423
C          0.36329        4.43617       -1.93008
H         -0.65603        4.35639       -2.33254
H          0.32945        5.15312       -1.09615
H          1.05498        4.80007       -2.69890
H          1.34396        0.55019       -2.06420
Pd         0.50537        0.94009        0.39652
O          0.98976        1.71415        2.31436
C          1.19634        0.53182        2.70454
O          1.01513       -0.40639        1.86096
C          1.66638        0.23015        4.08513
H          1.27176       -0.73911        4.41583
H          2.76547        0.16644        4.07418
H          1.37027        1.03269        4.77172
H         -2.81820       -2.34122        0.25233
C         -3.45626       -1.13769       -1.39775
H         -3.26234       -1.92101       -2.14819
H         -3.19755       -0.17564       -1.87492
C         -4.93020       -1.11708       -1.00753
H         -5.55297       -0.93297       -1.89764
H         -5.21818       -2.11476       -0.62940
C         -5.21115       -0.07209        0.06681
H         -6.27345       -0.09761        0.35828
H         -5.02734        0.93463       -0.35029
C         -4.31915       -0.27686        1.28634
H         -4.58183       -1.23331        1.77386
H         -4.50012        0.51176        2.03413
C         -2.84507       -0.29927        0.90102
H         -2.55030        0.69430        0.51657
H         -2.20859       -0.49027        1.78018
