34
Benzo13dioxol_H8_deriv1_Int1_Sub24.log	Energy: -990860.8935477
C          0.42041       -1.07355       -0.83042
C          1.65696       -0.48259       -0.64802
C         -0.29290       -1.45132        0.34966
C          2.18791       -0.27343        0.61887
O          2.51205        0.01665       -1.57248
C          0.29728       -1.26096        1.63138
H         -1.14512       -2.12582        0.25805
C          1.53887       -0.65937        1.78842
O          3.37224        0.34386        0.50981
C          3.65206        0.51668       -0.88947
Cl        -0.56128       -1.81070        3.02079
H          1.97515       -0.48511        2.77098
O          4.79213       -0.09753       -1.25641
H          3.77761        1.58904       -1.09972
O         -2.95225       -0.47582       -0.39823
C         -3.07309       -1.25634       -1.43423
O         -2.16151       -1.60948       -2.16300
C         -4.50350       -1.69023       -1.65928
H         -4.95372       -2.03937       -0.71988
H         -5.09075       -0.82430       -1.99975
H         -4.53597       -2.47801       -2.42112
H         -0.01707       -1.30561       -1.80357
Pd        -1.27831        0.47219       -0.00996
O         -1.89287        2.51151       -0.04132
C         -0.72396        2.83724        0.29505
O          0.12146        1.89723        0.47240
C         -0.31836        4.26224        0.45076
H          0.49934        4.34842        1.17744
H          0.04020        4.63386       -0.52173
H         -1.18038        4.86937        0.75406
C          4.83353       -1.50267       -1.09308
H          4.71942       -1.78428       -0.03409
H          4.05428       -1.99581       -1.69486
H          5.81947       -1.82722       -1.44508
