38
Benzoisoxazole_H10_Int1_Sub21.log	Energy: -691434.4731961
C         -0.20542       -1.39074       -0.92458
C          0.97209       -0.89980       -1.56108
C         -0.22322       -1.71911        0.45643
C          2.15601       -0.70779       -0.87816
H          0.90564       -0.66461       -2.62337
C          1.01920       -1.56512        1.11970
H         -1.04815       -2.27151        0.90921
C          2.15658       -1.06617        0.49998
C          3.39472       -0.10692       -1.49420
O          1.27843       -1.84372        2.39857
C          3.11022       -1.07780        1.56550
N          2.58776       -1.53549        2.66813
H          4.15585       -0.77136        1.56600
O         -2.86011       -0.62420        0.31862
C         -3.49800       -0.74342       -0.81594
O         -3.01734       -0.50657       -1.90990
C         -4.92380       -1.20579       -0.62967
H         -5.35292       -1.48096       -1.60033
H         -4.97018       -2.05168        0.06983
H         -5.50981       -0.38518       -0.18926
H         -1.07369       -1.61726       -1.54796
Pd        -1.11229        0.28016        0.27223
O         -1.55484        2.31875        0.65867
C         -0.31714        2.56239        0.64273
O          0.47298        1.58168        0.44343
C          0.21254        3.94392        0.81198
H         -0.45586        4.52830        1.45664
H          1.22975        3.91492        1.22211
H          0.24761        4.42885       -0.17598
H          4.25296       -0.67777       -1.09530
C          3.43717       -0.20294       -3.01296
H          4.40604        0.15840       -3.38786
H          3.30228       -1.23777       -3.36129
H          2.65696        0.41960       -3.47811
C          3.54562        1.34675       -1.02933
H          3.55134        1.42741        0.06694
H          4.48063        1.77914       -1.41718
H          2.70019        1.95057       -1.39115
