30
Benzofuran_H9_deriv1_Int1_Sub26.log	Energy: -1184079.3573134
C         -0.15188        0.10262       -1.41369
C         -1.49541        0.11631       -1.02064
C          0.60420        1.25885       -1.07960
C         -2.09772        1.17463       -0.33362
O         -2.38714       -0.88338       -1.21811
C         -0.01876        2.35451       -0.39761
H          1.58473        1.41752       -1.53195
C         -1.33876        2.32552       -0.01466
C         -3.45209        0.77065       -0.10773
C         -3.54411       -0.47169       -0.66522
Cl         0.95623        3.73751       -0.05205
H         -1.77854        3.16732        0.52083
H         -4.24850        1.31024        0.39644
Cl        -4.84910       -1.54021       -0.77315
O          2.82282       -0.51469       -0.57993
C          2.88852       -1.37850       -1.55607
O          1.93499       -1.93767       -2.06961
C          4.31146       -1.63612       -1.99501
H          4.86252       -0.69173       -2.10081
H          4.82125       -2.22659       -1.21891
H          4.31211       -2.19478       -2.93837
H          0.27452       -0.69285       -2.03564
Pd         1.14911       -0.24857        0.42021
O          1.51099       -1.23996        2.26146
C          0.38628       -0.83501        2.66499
O         -0.30120       -0.11668        1.86636
C         -0.14383       -1.20331        4.00675
H         -0.88345       -0.46552        4.34143
H         -0.63626       -2.18518        3.93111
H          0.68035       -1.29021        4.72610
