29
Benzoisoxazole_H11_deriv1_Int1_Sub18.log	Energy: -1194117.9085427
C         -0.14630       -0.97523       -1.17406
C          1.17712       -0.51491       -1.35752
C         -0.38942       -1.64569        0.05170
C          2.17178       -0.68179       -0.40600
O          1.65921        0.15021       -2.41303
C          0.65603       -1.82737        1.01898
H         -1.32134       -2.19727        0.19013
C          1.92727       -1.34885        0.81324
C          3.28354       -0.03070       -1.02421
N          2.97610        0.44903       -2.19675
Cl         0.25865       -2.66485        2.47356
H          2.71230       -1.47704        1.55896
Cl         4.84436        0.13901       -0.37363
O         -2.95857       -0.31980       -0.03294
C         -3.46033       -0.45154       -1.23248
O         -2.83500       -0.34493       -2.27246
C         -4.94122       -0.74636       -1.20084
H         -5.47848        0.17001       -0.91357
H         -5.27452       -1.06805       -2.19449
H         -5.17066       -1.51001       -0.44544
H         -0.89722       -0.95104       -1.97339
Pd        -1.15740        0.41846        0.24076
O         -1.54232        2.34255        1.02928
C         -0.29788        2.50513        1.16675
O          0.45820        1.53675        0.82007
C          0.27948        3.77745        1.67570
H         -0.43674        4.28097        2.33665
H          1.22783        3.58437        2.19285
H          0.48287        4.43570        0.81671
