45
Benzoisoxazole_H9_deriv1_Int1_Sub8.log	Energy: -787902.8714972
C         -0.48337       -0.72964        1.26268
C         -0.01351       -1.93644        0.67167
C          0.41982        0.37036        1.48114
C          1.32185       -1.93778        0.23635
O         -0.72289       -3.04198        0.52188
C          1.73721        0.38643        1.06394
H         -0.02482        1.23027        1.98207
C          2.13584       -0.81722        0.43391
C          2.17750       -2.85411       -0.44490
C          2.66203        1.58816        1.19213
O          3.33919       -1.07617       -0.08664
H          1.96087       -3.86088       -0.79952
N          3.35782       -2.34571       -0.63025
O         -3.02236        0.11497        0.13693
C         -3.29980        0.89940        1.14228
O         -2.47548        1.52051        1.79117
C         -4.78203        0.97576        1.42816
H         -5.23355       -0.02593        1.42158
H         -4.95037        1.47047        2.39206
H         -5.26882        1.55665        0.63034
H         -1.39948       -0.73404        1.85279
Pd        -1.18676        0.14070       -0.59187
O         -1.41625        1.00917       -2.52981
C         -0.18446        0.82684       -2.71793
O          0.47654        0.26329       -1.78261
C          0.50247        1.28060       -3.95930
H         -0.19497        1.26707       -4.80610
H          0.84491        2.31654       -3.81025
H          1.38023        0.65335       -4.15962
C          1.96570        2.73774        1.91893
H          2.65431        3.59217        1.99809
H          1.06889        3.07988        1.38051
H          1.66621        2.45536        2.93981
C          3.91990        1.19144        1.97859
H          4.47170        0.38130        1.48203
H          4.59563        2.05638        2.06773
H          3.65761        0.85916        2.99490
C          3.05016        2.05884       -0.21897
H          3.69763        2.94740       -0.15429
H          3.59288        1.27862       -0.77045
H          2.15226        2.31942       -0.79835
C         -2.08273       -3.04493        0.91969
H         -2.16999       -2.95399        2.01440
H         -2.63429       -2.22060        0.43920
H         -2.49006       -4.01161        0.60321
