32
Benzooxazole_H10_Int1_Sub22.log	Energy: -642159.5832194
C         -0.00588       -1.46840       -0.99312
C         -0.13577       -1.65280        0.41760
C         -1.09626       -1.04551       -1.78188
C         -1.36677       -1.43493        1.09994
H          0.68015       -2.14160        0.95561
C         -2.25955       -0.80777       -1.08974
H         -1.00725       -0.90723       -2.85884
C         -2.41269       -0.98830        0.30711
C         -1.51664       -1.67180        2.56584
O         -3.45164       -0.36843       -1.56325
N         -3.71569       -0.64863        0.64738
C         -4.24976       -0.30366       -0.46620
H         -5.27103        0.03415       -0.64142
O          2.51226       -0.52233        0.59298
C          3.29333       -0.86589       -0.39573
O          2.97550       -0.85805       -1.57177
C          4.67021       -1.27493        0.07442
H          4.60105       -1.96799        0.92418
H          5.22330       -1.73240       -0.75439
H          5.20775       -0.38112        0.42507
H          0.93197       -1.74072       -1.48429
Pd         0.79884        0.34612        0.16308
O          1.20199        2.42117        0.36369
C         -0.01725        2.64965        0.13591
O         -0.77443        1.64542       -0.07381
C         -0.57227        4.03195        0.14108
H         -1.40174        4.10909       -0.57348
H         -0.96445        4.24981        1.14653
H          0.21620        4.75826       -0.09120
H         -2.53166       -1.41827        2.89643
H         -0.79654       -1.06412        3.13489
H         -1.31826       -2.72666        2.81344
