39
Benzofuran_H13_deriv1_Int1_Sub5.log	Energy: -969714.2265756
C          0.10467       -0.77628        1.01040
C          1.49810       -0.40993        0.84957
C         -0.44164        0.24951        1.81185
C          1.66637        0.78462        1.56133
C          2.56640       -0.97752        0.13280
Cl        -1.81064        0.22953        2.82458
O          0.49557        1.16504        2.15602
C          2.86338        1.47768        1.62465
C          3.78128       -0.29517        0.21180
C          2.34843       -2.21407       -0.70919
C          3.92585        0.89793        0.93808
H          2.95690        2.41132        2.17918
H          4.65234       -0.69132       -0.31195
H          4.90221        1.38768        0.95916
O         -2.63047       -0.60769       -0.05432
C         -2.60915       -1.85617       -0.42273
O         -1.61175       -2.47389       -0.76164
C         -3.98047       -2.48893       -0.38093
H         -4.43973       -2.32985        0.60491
H         -4.62867       -2.00132       -1.12376
H         -3.90278       -3.56018       -0.60007
H         -0.34860       -1.74612        0.79938
Pd        -1.03004        0.52220       -0.28403
O         -1.47086        1.69167       -2.01420
C         -0.37328        2.29007       -1.84435
O          0.34211        1.94467       -0.84728
C          0.07331        3.38523       -2.74981
H          1.16874        3.39924       -2.81401
H         -0.37985        3.26644       -3.74162
H         -0.25832        4.34627       -2.32709
H          1.71210       -2.89632       -0.11816
C          1.56515       -1.85686       -1.97751
H          1.42696       -2.75128       -2.60349
H          0.56140       -1.47668       -1.74015
H          2.10626       -1.10015       -2.56721
C          3.63495       -2.95595       -1.04679
H          4.22265       -3.19078       -0.14630
H          3.40097       -3.90232       -1.55608
H          4.27285       -2.37116       -1.72863
