39
Benzo13dioxol_H8_deriv1_Int1_Sub29.log	Energy: -992991.4175686
C         -0.23255        0.88748        1.47852
C          1.11613        1.04074        1.23892
C         -1.13059        1.44724        0.51414
C          1.58683        1.72533        0.11720
O          2.17330        0.58190        1.95002
C         -0.61786        2.18403       -0.59094
H         -2.18149        1.56663        0.78004
C          0.74700        2.32351       -0.81586
O          2.92399        1.69370        0.10331
C          3.32053        0.77085        1.13171
Cl        -1.73283        2.93591       -1.66823
H          1.13744        2.85391       -1.68308
H          4.10765        1.25282        1.73557
C          3.78500       -0.53913        0.51801
O         -3.06826       -0.69503        0.12875
C         -3.44042       -0.73285        1.37724
O         -2.71126       -0.53832        2.33475
C         -4.90808       -1.06120        1.52815
H         -5.51369       -0.44788        0.84686
H         -5.06992       -2.11347        1.25035
H         -5.21707       -0.90509        2.56847
H         -0.64937        0.38488        2.35268
Pd        -1.16667       -0.56602       -0.33452
O         -0.79334       -2.41241       -1.35004
C          0.38208       -2.02233       -1.56557
O          0.70752       -0.86076       -1.14445
C          1.38795       -2.88440       -2.24931
H          2.09596       -2.26570       -2.81576
H          1.95155       -3.44031       -1.48365
H          0.88722       -3.60811       -2.90409
H          2.92322       -0.90238       -0.06970
C          4.96309       -0.30003       -0.41644
H          5.26810       -1.24106       -0.89759
H          4.70978        0.42174       -1.20558
H          5.83650        0.08698        0.13458
C          4.10691       -1.54626        1.61389
H          3.24262       -1.71172        2.27209
H          4.39469       -2.51260        1.17395
H          4.95025       -1.20245        2.23579
