29
Benzooxazole_H10_Int1_Sub10.log	Energy: -905824.4342953
C          0.04464       -1.54618       -0.08060
C         -0.01032       -1.17539       -1.45889
C          1.24964       -1.41114        0.64790
C          1.11806       -0.65997       -2.13680
H         -0.90443       -1.43807       -2.02784
C          2.32289       -0.87883       -0.03055
Cl         1.35050       -1.85444        2.29908
C          2.27457       -0.50315       -1.39578
H          1.08006       -0.39915       -3.19433
O          3.56548       -0.60381        0.42209
N          3.52108       -0.00108       -1.74019
C          4.20540       -0.08710       -0.65830
H          5.24399        0.20253       -0.49957
O         -2.65827       -0.16624       -0.78701
C         -3.29330       -1.00164       -0.00903
O         -2.80816       -1.57145        0.95213
C         -4.73434       -1.18757       -0.42363
H         -4.81334       -1.32247       -1.51098
H         -5.16352       -2.04568        0.10698
H         -5.29809       -0.27857       -0.16504
H         -0.80800       -2.04186        0.39510
Pd        -0.88993        0.50778       -0.25271
O         -1.28723        2.46888        0.44777
C         -0.04629        2.63064        0.60967
O          0.71605        1.65575        0.30165
C          0.51302        3.90855        1.12955
H          1.59373        3.81916        1.29065
H          0.30844        4.71058        0.40504
H          0.00538        4.17420        2.06742
