34
Benzofuran_H13_deriv1_Int1_Sub32.log	Energy: -967579.0654982
C          0.25646       -1.32505        0.39094
C         -1.16216       -1.10648        0.55597
C          0.46748       -1.23911       -1.00411
C         -1.68275       -0.90877       -0.73437
C         -2.02453       -1.02746        1.64986
Cl         1.68740       -1.94483       -1.96466
O         -0.69872       -1.01404       -1.67172
C         -3.00820       -0.63385       -0.99425
C         -3.37130       -0.76918        1.42494
H         -1.64877       -1.16378        2.66555
C         -3.86248       -0.57130        0.11572
H         -3.39336       -0.46997       -1.99971
H         -4.04879       -0.71423        2.27629
O         -5.15126       -0.31429       -0.16147
O          2.98401       -0.12365        0.18176
C          3.35421       -0.75184        1.26028
O          2.61472       -1.12682        2.15573
C          4.84642       -0.99415        1.28942
H          5.14726       -1.56211        0.39725
H          5.37805       -0.03234        1.25625
H          5.11563       -1.54447        2.19844
H          0.96418       -1.70768        1.13264
Pd         1.16196        0.58805       -0.07217
O          1.44197        2.70833        0.04814
C          0.21935        2.84563       -0.22755
O         -0.47157        1.79037       -0.41283
C         -0.40534        4.19142       -0.36651
H         -1.49076        4.12627       -0.22253
H          0.04704        4.89118        0.34783
H         -0.20578        4.56666       -1.38214
C         -6.08003       -0.23059        0.88548
H         -6.15264       -1.17892        1.44565
H         -5.83247        0.58332        1.58872
H         -7.05155       -0.01668        0.42309
