30
Benzo13dioxol_H9_Int1_Sub18.log	Energy: -919037.2910314
C         -0.15989       -1.24290       -1.22247
C          0.87164       -0.70281       -2.03725
C          0.07586       -1.58342        0.13705
C          2.08264       -0.50268       -1.43354
H          0.69351       -0.44030       -3.07912
C          1.37462       -1.40884        0.70720
H         -0.65687       -2.17717        0.68675
C          2.33880       -0.84620       -0.08415
O          3.20734        0.02142       -1.95620
Cl         1.68743       -1.83683        2.33973
O          3.60975       -0.53340        0.22025
C          4.13342        0.16373       -0.89588
H          5.10016       -0.27538       -1.18532
H          4.24595        1.23360       -0.64371
O         -2.61801       -0.58884        0.49783
C         -3.42371       -0.84744       -0.49624
O         -3.14716       -0.71603       -1.67572
C         -4.77630       -1.33159       -0.02639
H         -4.66508       -2.10189        0.74907
H         -5.31898       -0.48846        0.42683
H         -5.34752       -1.71854       -0.87848
H         -1.11492       -1.50559       -1.68564
Pd        -0.93392        0.36761        0.14399
O         -1.33872        2.39832        0.66704
C         -0.12754        2.66400        0.44694
O          0.62808        1.70986        0.06230
C          0.42670        4.03162        0.65612
H         -0.36513        4.78255        0.54506
H          0.82659        4.09562        1.67999
H          1.24853        4.22038       -0.04631
