29
Benzoisoxazole_H11_deriv1_Int1_Sub10.log	Energy: -1194118.8971650
C          0.18726       -0.66760        1.44147
C         -0.93510        0.09790        1.83406
C         -0.02191       -1.50861        0.32022
C         -2.15189        0.06802        1.16804
O         -1.00255        0.95999        2.85008
C         -1.28147       -1.56119       -0.36191
H          0.71894       -2.27048        0.06976
C         -2.33893       -0.76989        0.04242
C         -2.93501        1.00994        1.89780
N         -2.24988        1.52181        2.88149
Cl        -1.42167       -2.61510       -1.71095
Cl        -3.84460       -0.76884       -0.77031
H         -3.96546        1.32150        1.73337
O          2.70967       -0.79192       -0.33089
C          3.45236       -0.87243        0.74136
O          3.12940       -0.48888        1.85156
C          4.79759       -1.49732        0.45648
H          5.41226       -0.77550       -0.10214
H          5.29577       -1.74704        1.40060
H          4.68697       -2.38938       -0.17475
H          1.09920       -0.72916        2.04749
Pd         1.06995        0.29320       -0.35633
O          1.60052        1.94948       -1.56330
C          0.41197        2.36343       -1.46730
O         -0.40098        1.65166       -0.78734
C         -0.03001        3.64215       -2.08482
H          0.58829        3.87367       -2.96082
H         -1.09244        3.58636       -2.35373
H          0.09680        4.44835       -1.34560
