42
Benzo13dioxol_H9_Int1_Sub20.log	Energy: -729320.1157268
C          0.34581       -0.47969        1.79472
C         -0.53560        0.46059        2.38366
C         -0.06756       -1.28851        0.70155
C         -1.77506        0.55417        1.81130
H         -0.23267        1.08721        3.22137
C         -1.38155       -1.20099        0.13327
H          0.57360       -2.12180        0.41518
C         -2.18041       -0.24736        0.71785
O         -2.78315        1.38468        2.14275
C         -1.81702       -2.01610       -1.07736
O         -3.44648        0.10802        0.38017
C         -3.76519        1.25867        1.13506
H         -4.75725        1.13770        1.59569
H         -3.74073        2.15059        0.48163
O          2.62431       -0.89247       -0.25041
C          3.53204       -0.81269        0.68459
O          3.43488       -0.14606        1.69942
C          4.75379       -1.64636        0.37065
H          4.46165       -2.65886        0.05922
H          5.29284       -1.18889       -0.47243
H          5.41059       -1.68649        1.24762
H          1.31692       -0.66018        2.26148
Pd         1.09674        0.35008       -0.18226
O          1.61344        1.92808       -1.53331
C          0.47647        2.43071       -1.33367
O         -0.31241        1.82052       -0.53797
C          0.05962        3.71135       -1.97400
H          0.67997        3.91792       -2.85437
H         -1.00347        3.66854       -2.24519
H          0.19178        4.52775       -1.24738
C         -0.74071       -3.01784       -1.49554
H         -1.08594       -3.57764       -2.37759
H          0.20326       -2.51958       -1.76446
H         -0.53086       -3.75009       -0.70062
C         -3.10704       -2.77949       -0.74594
H         -3.91765       -2.09644       -0.45675
H         -3.44108       -3.35430       -1.62386
H         -2.94150       -3.48728        0.08084
C         -2.06441       -1.04457       -2.24295
H         -2.38692       -1.59990       -3.13776
H         -2.84315       -0.31035       -1.99361
H         -1.14324       -0.49483       -2.48947
