42
Benzo13dioxol_H8_deriv1_Int1_Sub28.log	Energy: -1017642.3989465
C         -0.27184        0.90534        1.37944
C          1.06341        0.97750        1.04359
C         -1.20463        1.49015        0.46340
C          1.49009        1.59584       -0.13081
O          2.13623        0.46045        1.68660
C         -0.73139        2.15639       -0.70243
H         -2.22350        1.68653        0.80043
C          0.61878        2.20296       -1.02936
O          2.81801        1.48427       -0.23930
C          3.29214        0.84105        0.95382
Cl        -1.87504        2.94326       -1.72361
H          0.97502        2.67896       -1.94166
H          3.85069        1.59688        1.53974
C          4.18332       -0.35436        0.63225
O         -3.27727       -0.56761        0.40473
C         -3.51217       -0.55907        1.68598
O         -2.67674       -0.37986        2.55587
C         -4.96859       -0.81221        2.00306
H         -5.61610       -0.18779        1.37227
H         -5.20682       -1.86212        1.77585
H         -5.15599       -0.61571        3.06533
H         -0.65363        0.45164        2.29590
Pd        -1.44081       -0.54290       -0.29044
O         -1.27039       -2.42703       -1.28921
C         -0.12170       -2.08284       -1.66917
O          0.29369       -0.92570       -1.32253
C          0.75282       -2.98989       -2.46519
H          1.32740       -2.41174       -3.20069
H          1.46797       -3.47572       -1.78340
H          0.15152       -3.76340       -2.95782
C          5.37721        0.15338       -0.17667
H          6.06332       -0.67806       -0.39685
H          5.05265        0.59348       -1.13063
H          5.94493        0.91720        0.37874
C          4.65382       -0.94878        1.96048
H          3.80185       -1.29433        2.56363
H          5.31565       -1.80785        1.77467
H          5.21931       -0.21252        2.55395
C          3.39147       -1.38743       -0.16668
H          4.03563       -2.24624       -0.40873
H          2.52781       -1.75353        0.40697
H          3.01064       -0.96194       -1.10584
