39
Benzofuran_H9_deriv1_Int1_Sub29.log	Energy: -969716.7601890
C         -0.01367       -0.42784       -1.29248
C         -1.32057       -0.14505       -0.87706
C          0.83037        0.69626       -1.50969
C         -1.80812        1.14894       -0.66961
O         -2.27763       -1.05351       -0.59774
C          0.32232        2.02186       -1.32044
H          1.77985        0.57194       -2.03335
C         -0.96434        2.26096       -0.89839
C         -3.16106        0.97895       -0.23441
C         -3.38631       -0.36997       -0.20893
Cl         1.39555        3.34107       -1.63152
H         -1.31403        3.28240       -0.74473
H         -3.87404        1.75424        0.03184
C         -4.57743       -1.19721        0.13484
O          2.95827       -0.92482       -0.44369
C          2.87790       -2.14044       -0.91057
O          1.85053       -2.78659       -1.02393
C          4.22986       -2.69287       -1.30065
H          4.79414       -1.95709       -1.88988
H          4.80983       -2.89321       -0.38724
H          4.10064       -3.62463       -1.86386
H          0.31335       -1.44284       -1.54265
Pd         1.41101       -0.09919        0.45198
O          1.88189       -0.25125        2.51906
C          0.82917        0.39615        2.77261
O          0.11589        0.77281        1.78580
C          0.40741        0.68689        4.17154
H         -0.25462        1.56121        4.19737
H         -0.14339       -0.18372        4.55990
H          1.28960        0.84155        4.80576
H         -4.25768       -1.87385        0.94931
C         -5.72326       -0.33425        0.64438
H         -6.57488       -0.96508        0.93703
H         -5.42607        0.26113        1.52038
H         -6.07434        0.35750       -0.13769
C         -4.99502       -2.06798       -1.05281
H         -4.15811       -2.68745       -1.40425
H         -5.82150       -2.73527       -0.76650
H         -5.33472       -1.44166       -1.89261
