35
Benzothiophene_H9_Int1_Sub15.log	Energy: -869433.7588840
C         -0.48294       -1.10776        1.06409
C         -1.84235       -0.90569        0.87603
C          0.31549       -1.47846       -0.05447
C         -2.44265       -1.10788       -0.39697
S         -3.00451       -0.37516        2.06004
C         -0.29470       -1.72615       -1.34347
H          1.29030       -1.91719        0.16024
C         -1.66790       -1.52059       -1.49049
C         -3.84807       -0.83151       -0.35344
C         -4.26476       -0.43968        0.88426
N          0.47983       -2.14552       -2.37542
H         -2.14312       -1.67973       -2.46145
H         -4.51285       -0.92137       -1.21304
H         -5.28133       -0.17847        1.17909
O          2.68673        0.15781        0.25903
C          3.03859       -0.37187        1.39561
O          2.27445       -0.79485        2.24629
C          4.54063       -0.40597        1.57400
H          5.03151       -0.78095        0.66529
H          4.90362        0.61952        1.73980
H          4.79906       -1.02826        2.43902
H          0.01741       -1.03762        2.03262
Pd         0.80535        0.61293       -0.12437
O          0.88013        2.73064       -0.44086
C         -0.34561        2.68985       -0.72947
O         -0.92642        1.55649       -0.69999
C         -1.09975        3.91485       -1.12430
H         -0.72318        4.78355       -0.56912
H         -0.93685        4.10022       -2.19721
H         -2.17368        3.77329       -0.95079
H          0.03014       -2.23997       -3.27421
C          1.91452       -2.22763       -2.32256
H          2.30181       -2.38001       -3.33790
H          2.26247       -3.07169       -1.70125
H          2.36009       -1.30462       -1.91158
