37
Carbazole_H10_Int1_Sub26.log	Energy: -979660.3261635
C          0.00816        0.77131        1.13199
C         -0.99042        0.12758        1.90861
C          1.27172        0.14218        1.00154
C         -0.71584       -1.11926        2.54817
H         -1.91520        0.64776        2.16520
C          1.49087       -1.10110        1.63158
C          2.48562        0.46546        0.29995
C          0.50547       -1.73549        2.41549
H         -1.50103       -1.57889        3.15091
N          2.76294       -1.52149        1.34925
C          3.39360       -0.60081        0.54283
C          2.90690        1.51912       -0.52237
H          0.70770       -2.69453        2.89677
H          3.16805       -2.39291        1.65898
C          4.68184       -0.62322        0.00628
C          4.18477        1.51071       -1.06555
Cl         1.82833        2.82444       -0.87726
C          5.05900        0.44643       -0.79580
H          5.36651       -1.44953        0.20593
H          4.49692        2.33724       -1.70496
H          6.05942        0.46279       -1.23363
O         -2.38926        1.43599       -0.35686
C         -3.52675        1.53834        0.27607
O         -3.95382        0.72679        1.07766
C         -4.28155        2.79338       -0.09879
H         -3.61942        3.66935       -0.05731
H         -4.63644        2.70195       -1.13621
H         -5.13861        2.92440        0.57233
H         -0.13862        1.79428        0.78386
Pd        -1.42481       -0.27539       -0.22234
O         -1.99110       -1.34964       -1.97077
C         -1.18517       -2.25958       -1.63522
O         -0.53395       -2.10559       -0.55110
C         -0.96812       -3.46285       -2.48840
H         -0.62702       -4.30803       -1.87762
H         -1.89023       -3.71398       -3.02753
H         -0.18862       -3.23070       -3.23052
