42
Carbazole_H7_Int1_Sub23.log	Energy: -750698.2023741
C         -0.79845       -0.07777       -1.81902
C         -0.24697        1.19124       -2.12484
C         -0.05732       -1.03124       -1.06929
C          1.01954        1.56269       -1.69804
H         -0.86489        1.91695       -2.65839
C          1.27790       -0.69903       -0.71441
H         -0.41495       -2.05914       -0.98517
C          1.78806        0.56982       -1.02959
N          1.55780        2.82349       -1.92248
C          2.34334       -1.42715       -0.07570
N          3.09491        0.64314       -0.61698
C          3.46532       -0.55736       -0.05002
C          2.45497       -2.71363        0.46689
H          3.72622        1.39131       -0.86369
C          4.69178       -0.95456        0.48676
C          3.67132       -3.10848        1.00635
H          1.59746       -3.39023        0.46671
C          4.77653       -2.23817        1.01162
H          5.55185       -0.28160        0.49773
H          3.77528       -4.10759        1.43466
H          5.72218       -2.57709        1.44097
O         -2.59310       -1.59731        0.14200
C         -3.63694       -1.47630       -0.63145
O         -3.85534       -0.53568       -1.37448
C         -4.58307       -2.64988       -0.50609
H         -4.03331       -3.59912       -0.57130
H         -5.06364       -2.61901        0.48325
H         -5.34964       -2.59325       -1.28799
H         -1.76958       -0.34516       -2.24169
Pd        -1.40535       -0.03638        0.34997
O         -2.08227        0.93267        2.13611
C         -1.13653        1.75466        2.01462
O         -0.34538        1.61480        1.02515
C         -0.95546        2.88518        2.97214
H          0.11112        3.11640        3.08973
H         -1.45805        3.77600        2.56440
H         -1.41192        2.64088        3.93913
H          0.97865        3.35301       -2.56604
C          1.91368        3.62732       -0.76372
H          2.37349        4.56686       -1.10124
H          2.64445        3.10427       -0.13214
H          1.04514        3.85381       -0.11907
