37
Carbazole_H7_Int1_Sub10.log	Energy: -979657.0443454
C          0.64549       -1.55061        0.26112
C          0.84129       -0.98698        1.55766
C         -0.64321       -1.50278       -0.33608
C         -0.20570       -0.35247        2.23589
H          1.81625       -1.10581        2.03846
C         -1.68269       -0.85336        0.30265
Cl        -0.86311       -2.25470       -1.87097
C         -1.43626       -0.27909        1.59867
H         -0.04343        0.08219        3.22286
C         -3.06401       -0.56583       -0.02399
N         -2.59389        0.30788        2.02432
C         -3.58756        0.15987        1.07472
C         -3.88649       -0.84242       -1.12061
H         -2.69322        0.81367        2.89241
C         -4.90591        0.60914        1.09969
C         -5.20336       -0.39405       -1.10102
H         -3.49652       -1.39869       -1.97310
C         -5.70400        0.32165       -0.00428
H         -5.29990        1.16680        1.95180
H         -5.85666       -0.60177       -1.95080
H         -6.74209        0.66196       -0.01362
O          3.25272       -0.62465       -0.52694
C          4.09499       -0.77490        0.45722
O          3.87029       -0.50037        1.62371
C          5.42406       -1.32881       -0.00400
H          5.27553       -2.18262       -0.67932
H          5.95614       -0.55168       -0.57309
H          6.02533       -1.62152        0.86492
H          1.39482       -2.22017       -0.16459
Pd         1.58296        0.37217       -0.21231
O          1.97434        2.32087       -0.98227
C          0.77749        2.62383       -0.72855
O          0.03732        1.72471       -0.20997
C          0.24263        3.99012       -0.99058
H         -0.84775        3.95712       -1.10733
H          0.48640        4.63448       -0.13176
H          0.72101        4.41653       -1.88150
