49
Carbazole_H8_Int1_Sub20.log	Energy: -789933.5682307
C         -0.99099        0.40845       -1.65931
C         -0.04363        1.44060       -1.47697
C         -0.64783       -0.93070       -1.35808
C          1.24266        1.22329       -1.00281
H         -0.36969        2.45147       -1.70999
C          0.68265       -1.15866       -0.92853
H         -1.28601       -1.76047       -1.66892
C          1.63291       -0.12996       -0.72421
C          2.17601        2.40985       -0.77386
N          1.23106       -2.37089       -0.62875
C          2.83628       -0.81129       -0.25018
C          2.52608       -2.20072       -0.21142
H          0.73883       -3.25171       -0.66810
C          4.13360       -0.43910        0.15136
C          3.43544       -3.17977        0.19353
C          5.04323       -1.40584        0.55758
H          4.44714        0.60213        0.15449
C          4.70117       -2.76679        0.57959
H          3.15302       -4.23473        0.20637
H          6.04441       -1.09788        0.86616
H          5.43624       -3.50669        0.90397
O         -3.30869       -1.19756       -0.38053
C         -4.20742       -0.51203       -1.03484
O         -4.09252        0.65388       -1.36748
C         -5.44477       -1.32674       -1.33778
H         -5.17349       -2.31547       -1.73285
H         -6.00189       -1.49007       -0.40297
H         -6.07891       -0.78597       -2.05026
H         -1.95555        0.63921       -2.11799
Pd        -1.77776       -0.21351        0.38242
O         -2.36152        0.20757        2.38418
C         -1.22422        0.71870        2.57693
O         -0.39890        0.70690        1.60723
C         -0.85772        1.35057        3.87612
H          0.22018        1.24909        4.05602
H         -1.09930        2.42358        3.82432
H         -1.43777        0.90405        4.69316
C          1.52081        3.75153       -1.11633
H          2.24193        4.56062       -0.92496
H          1.22996        3.81448       -2.17559
H          0.63255        3.94636       -0.49733
C          2.53273        2.46602        0.72189
H          2.93492        1.52332        1.10903
H          3.27061        3.26269        0.90766
H          1.62630        2.68218        1.30543
C          3.40695        2.27307       -1.68577
H          4.15995        3.03545       -1.43025
H          3.88381        1.28788       -1.63156
H          3.11171        2.42901       -2.73445
