40
Carbazole_H8_Int1_Sub25.log	Energy: -902723.3657009
C         -1.13092       -0.02722        1.98073
C         -0.51545       -1.18206        2.53394
C         -0.40064        0.86192        1.14733
C          0.80222       -1.47258        2.26120
H         -1.10741       -1.83314        3.17877
C          0.95755        0.54198        0.89869
H         -0.81658        1.83429        0.88641
C          1.54610       -0.61444        1.42478
H          1.27189       -2.36598        2.67788
N          1.89852        1.21654        0.12041
C          2.89852       -0.66664        0.92744
C          3.08777        0.46810        0.10415
C          1.55037        2.25218       -0.77850
C          3.93998       -1.58213        1.10937
C          4.30241        0.69690       -0.54616
C          5.14800       -1.35894        0.46432
H          3.79832       -2.45871        1.74508
C          5.31937       -0.23256       -0.35413
H          4.46062        1.56528       -1.18165
H          5.97241       -2.06345        0.59176
H          6.27684       -0.07427       -0.85548
O         -2.90294        1.07778       -0.22966
C         -3.98311        0.97102        0.49757
O         -4.17446        0.10974        1.33726
C         -4.99842        2.04410        0.17974
H         -4.51964        3.03240        0.14384
H         -5.42242        1.85071       -0.81700
H         -5.79954        2.02883        0.92809
H         -2.13968        0.24093        2.30378
Pd        -1.61739       -0.41414       -0.18773
O         -2.13529       -1.59958       -1.86708
C         -1.13725       -2.33211       -1.62049
O         -0.42350       -2.03264       -0.60849
C         -0.77732       -3.48466       -2.49252
H         -0.13115       -3.11998       -3.30597
H         -0.22212       -4.23722       -1.91889
H         -1.68152       -3.91674       -2.93939
F          2.63236        2.88796       -1.20275
F          0.75451        3.13570       -0.18540
F          0.90255        1.78884       -1.84800
