53
Carbazole_H7_Int1_Sub19.log	Energy: -838490.7980612
C          0.86197       -0.58570       -1.65760
C         -0.45103       -1.13037       -1.53842
C          1.10821        0.77524       -1.33912
C         -1.52108       -0.38547       -1.08710
H         -0.58845       -2.17875       -1.80418
C          0.01491        1.56824       -0.91818
H          2.07149        1.22840       -1.58222
C         -1.25663        0.97648       -0.78572
C         -2.89752       -0.94800       -0.84843
C         -0.11958        2.94811       -0.52826
N         -2.13652        1.92914       -0.33950
C         -1.48164        3.13125       -0.17408
C          0.76783        4.02710       -0.43469
H         -3.11386        1.77037       -0.14449
C         -1.97033        4.36500        0.25936
C          0.28526        5.25499       -0.00185
H          1.82161        3.90104       -0.69314
C         -1.06893        5.41984        0.33922
H         -3.02051        4.49798        0.52818
H          0.96465        6.10616        0.07839
H         -1.42080        6.39749        0.67656
O          3.54643       -0.46548       -0.39080
C          3.98232       -1.55578       -0.96227
O          3.30097       -2.53566       -1.20486
C          5.45545       -1.48223       -1.29504
H          5.69178       -0.53521       -1.79980
H          6.03583       -1.50758       -0.36060
H          5.73617       -2.33551       -1.92376
H          1.62861       -1.18976       -2.14628
Pd         1.73067       -0.51785        0.37340
O          2.00683       -1.03474        2.42852
C          0.76429       -0.90775        2.59448
O          0.06131       -0.56566        1.58832
C          0.11769       -1.18268        3.91010
H         -0.78901       -0.57490        4.02308
H         -0.17051       -2.24484        3.94390
H          0.82401       -0.99105        4.72738
H         -3.62785       -0.18498       -1.18694
C         -3.13599       -1.17823        0.65527
H         -2.91881       -0.26003        1.22335
H         -2.39473       -1.91589        1.00608
C         -4.55166       -1.67014        0.93032
H         -4.68122       -1.85995        2.00811
H         -5.27239       -0.87320        0.66884
C         -4.87836       -2.92256        0.12463
H         -5.92093       -3.23275        0.30037
H         -4.24246       -3.75426        0.47784
C         -4.63047       -2.70435       -1.36397
H         -5.34497       -1.95357       -1.74800
H         -4.82571       -3.63117       -1.92649
C         -3.20728       -2.22495       -1.62747
H         -2.50353       -3.01728       -1.31814
H         -3.04258       -2.05938       -2.70432
