40
Carbazole_H7_Int1_Sub25.log	Energy: -902724.0650979
C          1.30405        0.04716       -1.87372
C          0.55422       -1.09895       -2.26174
C          0.67609        1.08391       -1.13824
C         -0.77219       -1.24560       -1.92194
H          1.05341       -1.87736       -2.84118
C         -0.69182        0.93973       -0.80116
H          1.19097        2.03372       -0.97950
C         -1.38843       -0.21897       -1.17587
H         -1.32008       -2.13692       -2.21899
C         -1.59299        1.76797       -0.04410
N         -2.69707       -0.11911       -0.69480
C         -2.82533        1.08045        0.02615
C         -1.44178        3.00612        0.58895
C         -3.61431       -1.19182       -0.61089
C         -3.91172        1.60782        0.72673
C         -2.51973        3.53490        1.28461
H         -0.48847        3.53679        0.54224
C         -3.73613        2.83865        1.35102
H         -4.86463        1.08611        0.78951
H         -2.42210        4.49826        1.78915
H         -4.57160        3.27032        1.90664
O          3.29040        1.10361        0.10160
C          4.32291        0.73857       -0.61115
O          4.36806       -0.26045       -1.30615
C          5.48379        1.69688       -0.47822
H          5.14535        2.73541       -0.59780
H          5.90844        1.60647        0.53280
H          6.25210        1.45278       -1.22130
H          2.31229        0.17533       -2.27224
Pd         1.81896       -0.19433        0.28162
O          2.18386       -1.18248        2.12887
C          1.09789       -1.80579        1.97377
O          0.42162       -1.55644        0.92256
C          0.62652       -2.82077        2.95662
H         -0.46305       -2.93298        2.89355
H          1.09419       -3.78759        2.71425
H          0.93640       -2.53682        3.97034
F         -3.48755       -2.00165       -1.65490
F         -4.86173       -0.73679       -0.59282
F         -3.43892       -1.92222        0.49013
