26
Cyclopentadiene_H5_Int1_Sub2.log	Energy: -776890.0306175
C          1.07754       -0.99025        0.02644
C          2.27386       -0.16708       -0.39101
C          0.89304       -0.80947        1.40359
Cl         3.55667       -1.24622       -1.03992
H          2.03915        0.55938       -1.18414
C          2.70951        0.49855        0.87767
H          0.27669       -1.44795        2.03925
C          1.91202        0.12657        1.89632
H          3.53958        1.20394        0.91780
H          1.97773        0.47220        2.92817
O         -1.78230       -1.26474        0.65753
C         -2.02910       -2.06670       -0.34666
O         -1.46026       -2.02141       -1.42193
C         -3.11771       -3.06553       -0.03387
H         -3.16222       -3.82286       -0.82524
H         -2.94353       -3.53573        0.94371
H         -4.08147       -2.53786        0.02413
H          0.69406       -1.80751       -0.58842
Pd        -0.60212        0.26579        0.26561
O         -1.90729        1.88515       -0.26877
C         -0.89005        2.61589       -0.39404
O          0.25249        2.09200       -0.16140
C         -0.98699        4.04718       -0.79711
H         -2.03193        4.32469       -0.97677
H         -0.55885        4.67748       -0.00418
H         -0.38881        4.21047       -1.70511
