30
Cyclopentadiene_H5_deriv1_Int1_Sub16.log	Energy: -848714.8283825
C          0.08883       -1.26819        0.89945
C         -1.18848       -1.12423        1.69029
C         -0.29552       -1.59390       -0.42045
H         -1.27359       -1.93355        2.43710
H         -1.27920       -0.17014        2.23249
C         -2.25463       -1.25113        0.64963
Cl         0.68936       -2.35173       -1.60015
C         -1.72946       -1.54762       -0.57663
O         -3.50466       -1.04497        1.00375
H         -2.24625       -1.67566       -1.52421
O          2.32791       -0.02339       -0.40816
C          3.10917       -0.11646        0.63101
O          2.74310       -0.02444        1.79036
C          4.55011       -0.36355        0.24566
H          4.61740       -1.23257       -0.42425
H          4.93406        0.50490       -0.30944
H          5.15343       -0.52599        1.14653
H          1.02666       -1.57237        1.36539
Pd         0.46315        0.52819       -0.08167
O          0.37069        2.62668       -0.61044
C         -0.85340        2.60389       -0.32806
O         -1.36147        1.50319        0.07399
C         -1.71485        3.81330       -0.48447
H         -1.11856        4.72253       -0.33837
H         -2.11784        3.82823       -1.50907
H         -2.55676        3.77813        0.21838
C         -4.47341       -1.03037       -0.02245
H         -4.23458       -0.24754       -0.76045
H         -4.52737       -2.00882       -0.52746
H         -5.43639       -0.81143        0.45295
