29
Cyclopentadiene_H5_Int1_Sub25.log	Energy: -699969.1881499
C          0.11892       -1.05223        1.47291
C         -0.80342       -0.35700        2.43513
C         -0.60044       -1.34639        0.30655
H         -0.92169       -0.96557        3.35115
H         -0.42617        0.62606        2.76665
C         -2.08442       -0.23738        1.67852
H         -0.30266       -2.06275       -0.46136
C         -1.95788       -0.81618        0.46801
H         -2.97267        0.27923        2.04256
C         -2.98533       -0.85893       -0.61217
O          1.95643       -1.03574       -0.86413
C          2.98141       -1.42890       -0.15419
O          3.15077       -1.17160        1.02432
C          3.96184       -2.24480       -0.96326
H          4.69829       -2.70690       -0.29546
H          3.43726       -3.00962       -1.55222
H          4.47643       -1.58138       -1.67443
H          1.06741       -1.50681        1.77039
Pd         0.75352        0.29949       -0.05561
O          1.41934        2.19283       -0.80167
C          0.45826        2.73026       -0.19016
O         -0.30892        1.97085        0.49361
C          0.18790        4.19220       -0.27829
H          1.11865        4.73815       -0.47549
H         -0.50311        4.36852       -1.11724
H         -0.29197        4.54804        0.64211
F         -4.15628       -0.37335       -0.20176
F         -3.18627       -2.11030       -1.03935
F         -2.59561       -0.14280       -1.67376
