42
Cyclopentadiene_H5_Int1_Sub27.log	Energy: -635726.2999497
C          0.82408       -0.96235        1.68757
C          0.39519       -0.09581        2.83776
C         -0.28302       -1.14269        0.84642
H          0.49355       -0.66003        3.78417
H          1.02029        0.80691        2.95486
C         -1.02507        0.23328        2.51230
H         -0.35560       -1.91503        0.07779
C         -1.41875       -0.36636        1.36519
H         -1.63711        0.91827        3.10201
C         -2.72100       -0.21468        0.64539
O          1.80685       -1.36103       -1.05129
C          2.96880       -1.83280       -0.68394
O          3.57963       -1.47858        0.30821
C          3.49486       -2.87927       -1.63912
H          4.37988       -3.36236       -1.20865
H          2.71829       -3.62359       -1.86355
H          3.76589       -2.39405       -2.58870
H          1.71930       -1.58750        1.71268
Pd         1.14426        0.21413       -0.06368
O          1.75569        1.92049       -1.22100
C          1.14411        2.65039       -0.39736
O          0.56062        2.08406        0.58684
C          1.05979        4.12904       -0.57104
H          1.93366        4.49542       -1.12373
H          0.15676        4.36120       -1.15681
H          0.97348        4.62513        0.40391
H         -3.38817        0.38187        1.29350
C         -3.40909       -1.55855        0.37849
H         -3.57031       -2.09002        1.33029
H         -2.73676       -2.19481       -0.22528
C         -4.72600       -1.37658       -0.36773
H         -5.18486       -2.35776       -0.56988
H         -5.43573       -0.83033        0.27976
C         -4.53146       -0.60042       -1.66580
H         -5.49873       -0.44922       -2.17151
H         -3.91032       -1.19962       -2.35613
C         -3.84704        0.73879       -1.41384
H         -4.51829        1.38387       -0.81813
H         -3.67294        1.26805       -2.36451
C         -2.53095        0.56235       -0.66625
H         -1.81517        0.01332       -1.30595
H         -2.06192        1.53463       -0.44708
