38
Cyclopentadiene_H5_deriv1_Int1_Sub4.log	Energy: -875490.5230185
C          0.91505       -0.47990        0.14124
C          1.82098        0.68032       -0.20419
C          0.55120       -0.34975        1.49144
C          3.19787        0.22798       -0.77558
H          1.34979        1.31267       -0.98196
C          1.84864        1.47264        1.06878
Cl         0.01532       -1.60012        2.53875
C          1.11513        0.88453        2.03411
H          2.34783        2.43766        1.16332
H          0.92376        1.24514        3.04405
O         -1.68077       -1.69783       -0.01401
C         -1.37694       -2.38275       -1.08067
O         -0.62575       -2.00314       -1.96409
C         -2.05945       -3.73048       -1.11094
H         -1.87396       -4.26889       -0.17079
H         -3.14667       -3.58619       -1.19403
H         -1.69520       -4.31215       -1.96581
H          0.92028       -1.41710       -0.41371
Pd        -1.07427        0.17691        0.05656
O         -2.78843        1.32188       -0.54353
C         -2.10537        2.36699       -0.37971
O         -0.89774        2.23645        0.01199
C         -2.68470        3.72317       -0.59970
H         -3.46791        3.67927       -1.36671
H         -3.14307        4.06502        0.34123
H         -1.89777        4.43481       -0.87920
C          3.86952       -0.76565        0.17368
H          4.86892       -1.03523       -0.20122
H          3.99055       -0.33876        1.18153
H          3.28991       -1.69645        0.26782
C          2.96551       -0.41733       -2.14355
H          2.54756        0.31104       -2.85588
H          3.91698       -0.78602       -2.55706
H          2.26545       -1.26446       -2.09789
C          4.09334        1.45629       -0.94812
H          5.02635        1.17480       -1.46024
H          3.59935        2.23091       -1.55606
H          4.37070        1.90289        0.01871
