42
Cyclopentadiene_H5_deriv1_Int1_Sub3.log	Energy: -924039.7184185
C         -0.36974        0.44625        0.58781
C         -1.36423       -0.66890        0.35294
C          0.33271        0.14894        1.76764
C         -2.80388       -0.12916        0.23611
H         -1.13467       -1.19900       -0.59305
C         -1.08172       -1.61263        1.48363
Cl         1.16256        1.25924        2.78078
C         -0.10321       -1.14642        2.28425
H         -1.56473       -2.58497        1.58736
H          0.33578       -1.62949        3.15634
O          2.09107        1.71451       -0.11691
C          1.53655        2.48301       -1.01236
O          0.59842        2.15955       -1.72236
C          2.18399        3.84624       -1.08248
H          2.25460        4.28564       -0.07758
H          3.21012        3.74058       -1.46452
H          1.60658        4.49770       -1.74889
H         -0.51345        1.44895        0.18756
Pd         1.50824       -0.16970       -0.10210
O          2.98620       -1.21343       -1.25951
C          2.35271       -2.27963       -1.04233
O          1.29425       -2.21228       -0.33221
C          2.82895       -3.59317       -1.56311
H          3.38202       -3.44977       -2.49969
H          3.51364       -4.03593       -0.82319
H          1.98351       -4.27800       -1.70472
H         -2.97385        0.54884        1.09436
C         -3.85217       -1.24002        0.30752
H         -3.76918       -1.78595        1.26063
H         -3.64945       -1.97342       -0.49531
C         -5.26761       -0.69142        0.15318
H         -5.99504       -1.51880        0.17675
H         -5.49940       -0.05158        1.02381
C         -5.42616        0.12582       -1.12353
H         -6.44269        0.54667       -1.18520
H         -5.31183       -0.54038       -1.99784
C         -4.38090        1.23240       -1.20019
H         -4.56526        1.96687       -0.39530
H         -4.47049        1.78544       -2.14860
C         -2.97125        0.67232       -1.05714
H         -2.75866       -0.00064       -1.90832
H         -2.22403        1.47798       -1.12530
