42
Cyclopentadiene_H5_deriv1_Int1_Sub19.log	Energy: -924045.1784223
C          1.01362       -1.11104        1.41504
C          0.32064       -0.58410        2.64264
C          0.01048       -1.37510        0.46564
H          0.47019       -1.29025        3.48086
H          0.71988        0.38638        2.98423
C         -1.11353       -0.49579        2.23400
Cl         0.11687       -2.48939       -0.83900
C         -1.30451       -0.94481        0.97338
H         -1.88761       -0.06411        2.86896
C         -2.54227       -0.95282        0.13802
O          2.49051       -0.61098       -0.99986
C          3.66706       -0.69487       -0.44136
O          3.92539       -0.29920        0.68225
C          4.69137       -1.34230       -1.34267
H          4.30030       -2.28627       -1.74737
H          4.89148       -0.67906       -2.19720
H          5.61919       -1.51615       -0.78514
H          1.99256       -1.58981        1.44672
Pd         1.17252        0.44988        0.00995
O          1.31450        2.42155       -0.82567
C          0.40064        2.78745       -0.04041
O         -0.08076        1.92053        0.76306
C         -0.14292        4.17561       -0.06443
H          0.62803        4.87838       -0.40379
H         -0.97984        4.20930       -0.77938
H         -0.52415        4.45592        0.92553
H         -2.62625       -1.96216       -0.30930
C         -2.41714        0.04770       -1.02390
H         -1.51892       -0.17931       -1.62031
H         -2.26162        1.05212       -0.59323
C         -3.65765        0.03482       -1.90812
H         -3.55517        0.78422       -2.70941
H         -3.73273       -0.94652       -2.41039
C         -4.92639        0.28504       -1.10091
H         -5.81421        0.22904       -1.75117
H         -4.90120        1.31330       -0.69639
C         -5.05054       -0.70210        0.05482
H         -5.18888       -1.72099       -0.34973
H         -5.94836       -0.48309        0.65473
C         -3.81110       -0.68072        0.94198
H         -3.72497        0.31264        1.41824
H         -3.90427       -1.41547        1.75836
