29
Cyclopentadiene_H5_deriv1_Int1_Sub22.log	Energy: -801544.9137112
C         -0.23572        1.14212        1.23719
C          0.93049        1.11373        2.18862
C          0.23691        1.69085        0.03213
H          0.72256        1.77990        3.04688
H          1.11772        0.11290        2.61451
C          2.07559        1.60387        1.36502
Cl        -0.70366        2.46848       -1.17670
C          1.68642        1.93864        0.11535
H          3.10586        1.63121        1.72388
C          2.50516        2.41176       -1.03058
O         -1.94350       -0.24485       -0.62193
C         -2.83988       -0.56149        0.27170
O         -2.58914       -0.85023        1.42925
C         -4.24463       -0.53016       -0.28254
H         -4.42955        0.42456       -0.79468
H         -4.35708       -1.32845       -1.03094
H         -4.96699       -0.67877        0.52863
H         -1.27337        1.14916        1.57200
Pd        -0.07088       -0.50360       -0.06596
O          0.44356       -2.45619       -0.79049
C          1.59973       -2.29059       -0.31976
O          1.85250       -1.18741        0.27004
C          2.66175       -3.32687       -0.46711
H          2.20923       -4.31897       -0.58547
H          3.24957       -3.10128       -1.37035
H          3.33941       -3.30302        0.39583
H          2.09368        3.34059       -1.45443
H          2.50512        1.66108       -1.83746
H          3.54429        2.59092       -0.72541
