31
Cyclopentadiene_H5_deriv1_Int1_Sub23.log	Energy: -836250.7041601
C         -0.06088       -1.35102        1.24866
C         -0.90855       -0.95829        2.42997
C         -0.90498       -1.39439        0.11836
H         -0.91736       -1.79465        3.15468
H         -0.50871       -0.08519        2.97537
C         -2.24777       -0.68303        1.82903
Cl        -0.67217       -2.40947       -1.25188
C         -2.25266       -0.91826        0.49191
H         -3.08208       -0.25255        2.38449
N         -3.27878       -0.78976       -0.41579
O          1.94550       -0.84922       -0.58819
C          3.03207       -0.41592       -0.01039
O          3.01680        0.44727        0.85425
C          4.29585       -1.05532       -0.52088
H          4.16723       -2.14184       -0.61965
H          4.51584       -0.65696       -1.52289
H          5.12915       -0.82142        0.15228
H          0.83150       -1.97194        1.33620
Pd         0.45910        0.28844        0.06480
O          0.73248        2.25520       -0.82738
C         -0.28930        2.62812       -0.20226
O         -0.90270        1.76725        0.51913
C         -0.81544        4.02030       -0.30936
H          0.00991        4.72032       -0.48969
H         -1.50247        4.07073       -1.16852
H         -1.37194        4.29303        0.59601
H         -4.14797       -0.53633        0.04031
C         -3.05173       -0.04000       -1.63610
H         -3.93329       -0.13078       -2.28595
H         -2.19750       -0.45990       -2.18364
H         -2.84901        1.03156       -1.45334
