35
Cyclopentadiene_H5_Int1_Sub5.log	Energy: -562521.5850924
C          0.92459       -0.85983        0.39524
C          2.12568       -0.01661        0.04432
C          0.53565       -0.56530        1.70957
C          3.32847       -0.87199       -0.41706
H          1.87685        0.67565       -0.78552
C          2.32440        0.79902        1.28753
H         -0.13671       -1.17712        2.31439
C          1.41437        0.47911        2.23142
H          3.07398        1.58641        1.37596
H          1.31148        0.93714        3.21548
O         -1.96707       -1.33110        0.58580
C         -1.96189       -2.27024       -0.32163
O         -1.20135       -2.32124       -1.27242
C         -3.02860       -3.31272       -0.07571
H         -2.86827       -4.17068       -0.73920
H         -3.02658       -3.62951        0.97632
H         -4.01466       -2.86970       -0.28118
H          0.64905       -1.75968       -0.15850
Pd        -0.86353        0.27173        0.25573
O         -2.19793        1.72407       -0.60209
C         -1.23770        2.53859       -0.61747
O         -0.10839        2.14047       -0.17581
C         -1.40590        3.93893       -1.10168
H         -2.17967        3.97872       -1.87853
H         -1.73415        4.56470       -0.25733
H         -0.45209        4.33277       -1.47426
H          3.48401       -1.65254        0.34974
C          3.02473       -1.54900       -1.74900
H          3.85084       -2.21367       -2.04377
H          2.10507       -2.15099       -1.71980
H          2.90013       -0.79706       -2.54538
C          4.60149       -0.03913       -0.51213
H          4.91015        0.36318        0.46365
H          5.43285       -0.64937       -0.89640
H          4.46616        0.80932       -1.20332
