29
Cyclopentadiene_H5_deriv1_Int1_Sub17.log	Energy: -988284.8905837
C          0.26371       -0.94909        1.44215
C         -0.55375       -0.23896        2.48779
C         -0.58270       -1.21351        0.34964
H         -0.62986       -0.86598        3.39588
H         -0.11379        0.71959        2.81201
C         -1.88440       -0.04985        1.84074
Cl        -0.38952       -2.45256       -0.81798
C         -1.90122       -0.61740        0.62060
H         -2.70608        0.51941        2.27552
C         -3.02384       -0.55890       -0.36510
O          2.14915       -0.79714       -0.74904
C          3.19008       -0.97999        0.01713
O          3.28644       -0.56080        1.15811
C          4.27644       -1.77724       -0.66294
H          3.85825       -2.69519       -1.09908
H          4.69574       -1.18527       -1.48984
H          5.06658       -2.01727        0.05805
H          1.17746       -1.49594        1.67696
Pd         0.79827        0.45004       -0.04401
O          1.29094        2.33679       -0.92204
C          0.29639        2.83587       -0.33192
O         -0.40128        2.06439        0.41023
C         -0.08926        4.26322       -0.50926
H          0.78792        4.86219       -0.78271
H         -0.82417        4.32587       -1.32682
H         -0.56113        4.64674        0.40427
F         -2.62472        0.00914       -1.50642
F         -4.04134        0.15716        0.11516
F         -3.48952       -1.77221       -0.66486
