35
Cyclopentadiene_H5_Int1_Sub13.log	Energy: -562525.8801092
C         -0.92289        0.50378        1.33233
C         -0.23939        1.50584        2.22377
C         -1.29107        1.14532        0.13028
H         -0.84172        1.67393        3.13629
H          0.75631        1.17940        2.57128
C         -0.17017        2.73053        1.37228
C         -2.36619        0.71590       -0.83131
C         -0.76677        2.51556        0.18241
H          0.33823        3.64767        1.67398
H         -0.84239        3.23125       -0.63643
O         -0.73407       -1.74612       -0.44030
C         -0.62886       -2.70146        0.44495
O          0.01565       -2.60988        1.47467
C         -1.39112       -3.94710        0.05978
H         -1.37956       -4.66167        0.89116
H         -2.42485       -3.69583       -0.21691
H         -0.91869       -4.40150       -0.82378
H         -1.41101       -0.38896        1.72780
Pd         0.47222       -0.22150       -0.06224
O          2.35478       -0.74389       -0.97018
C          2.81861        0.34385       -0.53909
O          2.03266        1.11877        0.10136
C          4.25091        0.71481       -0.72924
H          4.64126        0.25764       -1.64703
H          4.36501        1.80583       -0.75261
H          4.82848        0.32393        0.12279
H         -2.51457       -0.36332       -0.68417
C         -3.66223        1.44761       -0.47207
H         -4.48201        1.10758       -1.12327
H         -3.95527        1.25810        0.57151
H         -3.55944        2.53688       -0.60127
C         -1.97198        0.94574       -2.28630
H         -1.05918        0.38727       -2.54143
H         -2.77458        0.60511       -2.95746
H         -1.79347        2.01214       -2.49855
