38
Cyclopentadiene_H5_deriv1_Int1_Sub20.log	Energy: -875492.7850772
C          0.28104       -1.04872        1.39545
C         -0.49559       -0.38928        2.49811
C         -0.60899       -1.24655        0.32361
H         -0.55241       -1.06912        3.36886
H         -0.02891        0.54085        2.86552
C         -1.83427       -0.14879        1.88631
Cl        -0.38738       -2.45116       -0.88822
C         -1.92259       -0.63445        0.62610
H         -2.61463        0.42101        2.38972
C         -3.07803       -0.48452       -0.34125
O          2.16740       -0.83494       -0.73180
C          3.23860       -0.91473        0.01008
O          3.34688       -0.40560        1.11231
C          4.34371       -1.70811       -0.64451
H          3.95478       -2.66115       -1.02920
H          4.73165       -1.14250       -1.50471
H          5.15201       -1.88226        0.07542
H          1.17549       -1.64537        1.57446
Pd         0.81375        0.41069       -0.02359
O          1.30384        2.30211       -0.91057
C          0.31764        2.80614       -0.31180
O         -0.38646        2.04176        0.42960
C         -0.05335        4.23983       -0.48472
H          0.84404        4.84119       -0.67657
H         -0.71722        4.32549       -1.35910
H         -0.59298        4.60673        0.39723
C         -2.55850        0.12591       -1.65162
H         -3.39185        0.26520       -2.35763
H         -2.09778        1.10631       -1.45987
H         -1.80996       -0.51663       -2.13627
C         -3.73532       -1.84743       -0.60749
H         -4.12243       -2.28195        0.32696
H         -4.58067       -1.72547       -1.30280
H         -3.03111       -2.56316       -1.05125
C         -4.12872        0.45737        0.24997
H         -4.95573        0.58715       -0.46425
H         -4.55674        0.05660        1.18174
H         -3.69975        1.44865        0.46089
