35
Cyclopentadiene_H5_deriv1_Int1_Sub5.log	Energy: -850839.8777723
C          0.98877       -0.66363        0.19576
C          2.06326        0.32633       -0.19501
C          0.64141       -0.40976        1.53323
C          3.33320       -0.38355       -0.71702
H          1.70192        0.98815       -1.00792
C          2.21132        1.16381        1.04001
Cl        -0.09284       -1.50461        2.63311
C          1.38856        0.74681        2.02234
H          2.85518        2.04259        1.09393
H          1.25170        1.18229        3.01141
O         -1.73772       -1.49788        0.02958
C         -1.53671       -2.22765       -1.03198
O         -0.74927       -1.95691       -1.92396
C         -2.39337       -3.47194       -1.04666
H         -2.30021       -4.00900       -0.09234
H         -3.44917       -3.18324       -1.15617
H         -2.09769       -4.11644       -1.88278
H          0.87231       -1.62479       -0.30315
Pd        -0.87608        0.27615        0.04822
O         -2.40024        1.63656       -0.61433
C         -1.57251        2.57544       -0.47783
O         -0.40074        2.28393       -0.06393
C         -1.94355        3.99280       -0.75467
H         -2.71738        4.03559       -1.53119
H         -2.35542        4.43333        0.16653
H         -1.05777        4.57013       -1.04772
H          3.58595       -1.17220        0.01478
C          3.05025       -1.03489       -2.06674
H          3.90435       -1.64919       -2.38929
H          2.15536       -1.67417       -2.05356
H          2.88279       -0.26366       -2.83626
C          4.51456        0.57433       -0.81046
H          4.81774        0.96035        0.17385
H          5.38638        0.06620       -1.24950
H          4.27424        1.43522       -1.45623
