29
Cyclopentadiene_H5_Int1_Sub22.log	Energy: -513227.1037995
C         -0.09525       -1.65494        0.56252
C         -1.46918       -1.71730        1.16767
C         -0.24059       -1.73795       -0.83165
H         -1.56559       -2.62919        1.78635
H         -1.69108       -0.86594        1.83367
C         -2.39129       -1.76249       -0.01687
H          0.57073       -1.95229       -1.52994
C         -1.65929       -1.79621       -1.15765
C         -3.86878       -1.71066        0.11398
H         -2.05869       -1.81992       -2.17218
O          2.12932       -0.17052       -0.69297
C          2.97002       -0.42762        0.27319
O          2.66698       -0.57048        1.44417
C          4.39689       -0.52340       -0.21739
H          5.03731       -0.91727        0.58061
H          4.45761       -1.15802       -1.11228
H          4.74440        0.48024       -0.50497
H          0.81931       -1.86072        1.12401
Pd         0.27778        0.29140       -0.19093
O          0.19388        2.44525       -0.19063
C         -1.02997        2.35789        0.08955
O         -1.53452        1.19294        0.22098
C         -1.88773        3.56997        0.23329
H         -1.29428        4.40735        0.62132
H         -2.26719        3.85123       -0.76128
H         -2.74458        3.35922        0.88526
H         -4.17328       -0.73654        0.53150
H         -4.23928       -2.48552        0.80473
H         -4.36763       -1.83801       -0.85624
