42
Cyclopentadiene_H5_Int1_Sub3.log	Energy: -635721.3327605
C         -0.33544        0.52036        0.73001
C         -1.36475       -0.55451        0.48086
C          0.33855        0.23060        1.92467
C         -2.78468        0.02656        0.31748
H         -1.12423       -1.10523       -0.45079
C         -1.15195       -1.48310        1.63969
H          0.95719        0.93797        2.48063
C         -0.17997       -1.02725        2.45758
H         -1.68032       -2.43008        1.75601
H          0.19686       -1.51910        3.35472
O          2.36921        1.64536        0.51667
C          1.99549        2.62256       -0.26483
O          1.08478        2.56448       -1.07241
C          2.83335        3.86584       -0.07102
H          2.37332        4.70889       -0.59987
H          2.94797        4.09384        0.99763
H          3.84033        3.68458       -0.47590
H         -0.36893        1.49768        0.24430
Pd         1.60304       -0.14290        0.18277
O          3.04611       -1.17179       -1.03692
C          2.30071       -2.18570       -0.99315
O          1.21045       -2.09899       -0.33541
C          2.68087       -3.46682       -1.65507
H          3.29308       -3.26524       -2.54297
H          3.28306       -4.06043       -0.94989
H          1.78499       -4.04380       -1.91615
H         -2.97383        0.68937        1.18352
C         -3.85702       -1.06435        0.32298
H         -3.82101       -1.63184        1.26604
H         -3.63416       -1.78445       -0.48655
C         -5.25614       -0.49017        0.12352
H         -5.99687       -1.30579        0.10212
H         -5.51340        0.13799        0.99554
C         -5.34854        0.35181       -1.14320
H         -6.35495        0.78979       -1.24123
H         -5.20560       -0.30008       -2.02411
C         -4.28526        1.44334       -1.15184
H         -4.49385        2.16266       -0.33929
H         -4.32693        2.01827       -2.09062
C         -2.88940        0.86200       -0.96071
H         -2.64377        0.21182       -1.82078
H         -2.13846        1.66695       -0.96700
