29
Cyclopentadiene_H5_deriv1_Int1_Sub14.log	Energy: -801545.5415282
C          0.11741       -1.31458        0.93163
C         -1.21761       -1.44141        1.61714
C         -0.08342       -1.70620       -0.40536
H         -1.16839       -2.24114        2.37997
H         -1.52959       -0.52526        2.14579
C         -2.17331       -1.81237        0.51962
Cl         1.11004       -2.27016       -1.49980
C         -1.49453       -1.98128       -0.63948
C         -3.63901       -1.89508        0.73067
H         -1.90645       -2.24455       -1.61318
O          2.07550        0.38239       -0.39063
C          2.83882        0.45911        0.66391
O          2.43867        0.46517        1.81548
C          4.30498        0.53194        0.30495
H          4.57275       -0.30783       -0.35202
H          4.49953        1.45805       -0.25544
H          4.91197        0.51324        1.21767
H          1.06724       -1.35367        1.46703
Pd         0.13225        0.51155       -0.10402
O         -0.34930        2.55293       -0.57475
C         -1.55571        2.29169       -0.32855
O         -1.85124        1.10379        0.03172
C         -2.62441        3.32100       -0.48234
H         -2.21697        4.32047       -0.28546
H         -2.98774        3.29678       -1.52144
H         -3.46765        3.10115        0.18440
H         -4.03456       -0.88958        0.94945
H         -3.88491       -2.53487        1.59333
H         -4.15786       -2.28220       -0.15632
