38
Cyclopentadiene_H5_deriv1_Int1_Sub12.log	Energy: -875494.9956173
C          0.15816       -1.27657        0.75684
C         -1.17622       -0.95523        1.37516
C         -0.07602       -1.47948       -0.61563
H         -1.45700       -1.75876        2.08047
H         -1.16319       -0.02117        1.95948
C         -2.13161       -0.89076        0.21361
Cl         0.90557       -2.36848       -1.70630
C         -1.47233       -1.20752       -0.92737
C         -3.58278       -0.50979        0.36132
H         -1.87129       -1.24047       -1.93909
O          2.69259       -0.37817       -0.23404
C          3.31440       -0.51194        0.90494
O          2.81624       -0.29034        1.99536
C          4.74020       -0.98063        0.73268
H          4.77356       -1.86478        0.08072
H          5.32451       -0.18981        0.23944
H          5.17754       -1.20666        1.71227
H          0.98431       -1.70149        1.32731
Pd         0.91541        0.46658       -0.13356
O          1.27417        2.55049       -0.53365
C          0.03954        2.75519       -0.40986
O         -0.71264        1.75403       -0.16018
C         -0.54922        4.12113       -0.52487
H          0.19015        4.82493       -0.92444
H         -1.44117        4.09005       -1.16556
H         -0.86854        4.45529        0.47392
C         -3.68851        0.82853        1.10892
H         -4.74167        1.14569        1.15847
H         -3.31914        0.74537        2.14224
H         -3.09995        1.60476        0.60001
C         -4.24588       -0.37413       -1.00884
H         -4.21309       -1.32031       -1.57033
H         -5.30346       -0.09358       -0.89183
H         -3.75206        0.40345       -1.61093
C         -4.29926       -1.60484        1.16878
H         -5.36280       -1.34737        1.29171
H         -4.23928       -2.57836        0.65864
H         -3.86657       -1.71695        2.17458
