38
Cyclopentadiene_H5_Int1_Sub4.log	Energy: -587171.9905634
C         -0.88555        0.65377        0.33531
C         -1.91952       -0.39246       -0.00071
C         -0.47545        0.47302        1.66354
C         -3.25113        0.19868       -0.55040
H         -1.52384       -1.06513       -0.78752
C         -2.00629       -1.18311        1.27113
H          0.07878        1.20629        2.25289
C         -1.17857       -0.68412        2.21331
H         -2.61688       -2.08017        1.38092
H         -1.01722       -1.08557        3.21412
O          1.89250        1.59891        0.55416
C          1.74146        2.50992       -0.36894
O          0.98719        2.42448       -1.32234
C          2.62691        3.71330       -0.13800
H          2.33613        4.52324       -0.81732
H          2.56730        4.04368        0.90815
H          3.67234        3.42984       -0.33160
H         -0.74270        1.56369       -0.25150
Pd         1.06942       -0.17087        0.25970
O          2.64042       -1.40757       -0.53334
C          1.82852       -2.37006       -0.53434
O          0.64098       -2.15131       -0.12113
C          2.23477       -3.73742       -0.96912
H          3.02037       -3.67259       -1.73229
H          2.64395       -4.27451       -0.09940
H          1.36659       -4.29448       -1.34276
C         -3.82068        1.23008        0.42484
H         -4.78980        1.60628        0.06195
H         -3.97936        0.79253        1.42270
H         -3.14992        2.09556        0.53673
C         -2.97571        0.85323       -1.90563
H         -2.59170        0.11766       -2.62979
H         -3.90319        1.27985       -2.31820
H         -2.23752        1.66570       -1.83564
C         -4.25859       -0.93666       -0.74189
H         -5.17167       -0.55612       -1.22538
H         -3.84759       -1.73334       -1.38220
H         -4.55696       -1.38723        0.21665
