35
Cyclopentadiene_H5_deriv1_Int1_Sub21.log	Energy: -850845.0622869
C          0.24152       -1.11904        1.34223
C         -0.69061       -0.62877        2.41706
C         -0.55263       -1.41054        0.21876
H         -0.67563       -1.33519        3.26813
H         -0.40099        0.35341        2.82866
C         -2.02392       -0.59203        1.74457
Cl        -0.15659       -2.50622       -1.04515
C         -1.95621       -1.03694        0.47012
H         -2.92072       -0.19747        2.22318
C         -3.02049       -1.08937       -0.58273
O          2.13664       -0.54615       -0.73480
C          3.18674       -0.57399        0.03982
O          3.20551       -0.16265        1.18711
C          4.39322       -1.17634       -0.63977
H          4.13010       -2.13874       -1.10060
H          4.72421       -0.50738       -1.44791
H          5.20317       -1.30520        0.08774
H          1.21297       -1.56423        1.55816
Pd         0.60896        0.45924       -0.00119
O          0.83833        2.43978       -0.79181
C         -0.22219        2.76783       -0.19725
O         -0.81960        1.87767        0.49532
C         -0.79702        4.13785       -0.32181
H          0.00271        4.86941       -0.49147
H         -1.47034        4.15525       -1.19304
H         -1.38141        4.39216        0.57130
H         -2.96818       -2.09657       -1.03538
C         -4.41459       -0.88922       -0.00668
H         -5.17561       -0.99995       -0.79309
H         -4.63532       -1.62069        0.78528
H         -4.52503        0.12050        0.42007
C         -2.71655       -0.07036       -1.68588
H         -1.73008       -0.24846       -2.13959
H         -3.47133       -0.12881       -2.48473
H         -2.71915        0.94920       -1.27145
