26
Cyclopentadiene_H5_Int1_Sub18.log	Energy: -776895.0385949
C         -0.15215       -1.54558        0.55874
C         -1.52256       -1.39541        1.15895
C         -0.29136       -1.60213       -0.83837
H         -1.76963       -2.27122        1.78540
H         -1.63098       -0.50251        1.79691
C         -2.40335       -1.31907       -0.04734
H          0.48260       -1.94685       -1.52677
C         -1.69666       -1.44600       -1.19310
Cl        -4.08287       -1.05842        0.08486
H         -2.09577       -1.40762       -2.20526
O          2.29750       -0.44480       -0.68749
C          3.07430       -0.85554        0.27976
O          2.73544       -0.97485        1.44367
C          4.47360       -1.16634       -0.19889
H          5.02998       -1.68149        0.59296
H          4.44508       -1.77544       -1.11283
H          4.98225       -0.22367       -0.45072
H          0.71356       -1.89312        1.12855
Pd         0.54282        0.31064       -0.19251
O          0.81196        2.44494       -0.17671
C         -0.41286        2.55597        0.09308
O         -1.09752        1.48435        0.21142
C         -1.06818        3.88660        0.23936
H         -0.34512        4.62510        0.60736
H         -1.42134        4.21349       -0.75097
H         -1.93500        3.81468        0.90813
