38
Cyclopentadiene_H5_Int1_Sub20.log	Energy: -587176.2666370
C          0.11219       -1.50833        0.49956
C         -1.23516       -1.22620        1.09981
C         -0.03576       -1.51102       -0.89571
H         -1.56140       -2.09760        1.69644
H         -1.22391       -0.36642        1.78994
C         -2.13263       -0.99860       -0.08697
H          0.69518       -1.91349       -1.59974
C         -1.41659       -1.18455       -1.22517
C         -3.58214       -0.60342        0.04099
H         -1.78603       -1.07866       -2.24406
O          2.66944       -0.66241       -0.68054
C          3.39294       -1.13350        0.29975
O          3.04259       -1.18194        1.46526
C          4.74730       -1.61737       -0.16616
H          5.24531       -2.16173        0.64482
H          4.64604       -2.25447       -1.05564
H          5.35817       -0.74891       -0.45479
H          0.93287       -1.96185        1.06030
Pd         1.00568        0.28488       -0.20208
O          1.51791        2.38069       -0.16780
C          0.31258        2.63083        0.08969
O         -0.49668        1.64803        0.18946
C         -0.18696        4.02719        0.25191
H          0.65071        4.71698        0.40839
H         -0.72734        4.31844       -0.66179
H         -0.89574        4.07686        1.08939
C         -4.20811       -0.38631       -1.33617
H         -5.26682       -0.10469       -1.23126
H         -3.69700        0.42046       -1.88298
H         -4.16413       -1.30011       -1.94833
C         -4.34331       -1.72040        0.77282
H         -3.94621       -1.88623        1.78581
H         -5.40642       -1.45135        0.87326
H         -4.28193       -2.67071        0.22047
C         -3.68412        0.69878        0.85155
H         -4.73328        1.03031        0.89772
H         -3.33301        0.55969        1.88512
H         -3.07391        1.49127        0.39597
