33
Ethene_H2_Int1_Sub12.log	Energy: -514741.0733288
C         -0.37566       -1.18972       -1.40141
C         -1.00957       -1.43375       -0.18986
H         -0.88695       -0.64675       -2.20166
C         -2.45328       -1.13784        0.16052
H         -0.51508       -2.13649        0.49201
O          1.62544       -1.08404        0.69126
C          2.69767       -1.24703       -0.04254
O          2.84717       -0.76765       -1.15064
C          3.74579       -2.09211        0.64104
H          4.54190       -2.34060       -0.07054
H          4.16959       -1.52530        1.48347
H          3.29719       -3.00579        1.05490
H          0.53207       -1.72813       -1.68479
Pd         0.35851        0.24033       -0.03110
O          1.05203        2.13988        0.68034
C          0.06914        2.67246        0.10072
O         -0.75246        1.90683       -0.50898
C         -0.13059        4.14886        0.08504
H          0.37351        4.60946        0.94332
H          0.31341        4.55068       -0.83891
H         -1.20190        4.38715        0.08012
C         -3.15721       -0.26891       -0.87951
H         -4.19895       -0.09402       -0.57028
H         -2.66678        0.70874       -0.98665
H         -3.18564       -0.76056       -1.86421
C         -3.14101       -2.51214        0.23330
H         -2.67959       -3.15450        0.99938
H         -4.20336       -2.38469        0.49325
H         -3.08722       -3.03767       -0.73255
C         -2.51966       -0.46810        1.53798
H         -3.56567       -0.38996        1.87265
H         -1.96234       -1.04448        2.29286
H         -2.09703        0.54705        1.50083
