30
Ethene_H2_Int1_Sub13.log	Energy: -490091.9634509
C         -0.41377       -1.46821       -1.32520
C         -1.12417       -1.54082       -0.12663
H         -0.87545       -1.02333       -2.21352
C         -2.55828       -1.12023        0.03809
H         -0.72147       -2.19618        0.65767
O          1.60339       -1.13754        0.60637
C          2.75672       -0.81212        0.08215
O          2.87250        0.04128       -0.78102
C          3.92164       -1.57218        0.66044
H          4.81319       -1.40972        0.04337
H          4.11430       -1.20870        1.68112
H          3.68816       -2.64341        0.73139
H          0.46444       -2.09783       -1.48615
Pd         0.23517        0.09937       -0.10170
O          0.61436        2.10237        0.67224
C         -0.39119        2.47673        0.02204
O         -1.05585        1.59130       -0.62438
C         -0.80628        3.90691       -0.04611
H         -0.42472        4.45378        0.82465
H         -0.37507        4.35190       -0.95617
H         -1.89905        3.98413       -0.11395
H         -2.76981       -0.33687       -0.70852
C         -3.45173       -2.32927       -0.25640
H         -4.51258       -2.05140       -0.16183
H         -3.28838       -2.71484       -1.27381
H         -3.25586       -3.14968        0.45284
C         -2.82590       -0.55424        1.42750
H         -2.21854        0.34318        1.61401
H         -3.88489       -0.27636        1.53691
H         -2.58928       -1.29441        2.20918
