36
Furan_H6_Int1_Sub4.log	Energy: -609699.1355041
C          0.75677        0.47513        1.35852
C          1.14479        1.29769        0.27363
O          0.00594        1.21379        2.23798
C          0.48710        2.55060        0.51401
C          2.25747        1.09190       -0.74355
C         -0.16663        2.42382        1.70024
H          0.49751        3.43173       -0.12108
H         -0.80674        3.10739        2.25412
O          0.50630       -1.84274       -0.49900
C          0.70465       -2.72190        0.44631
O          0.41420       -2.56022        1.61854
C          1.38569       -3.97239       -0.06061
H          0.88634       -4.34177       -0.96669
H          2.42587       -3.73548       -0.33285
H          1.38210       -4.73927        0.72285
H          1.19574       -0.42867        1.78129
Pd        -0.63307       -0.28502       -0.06868
O         -2.49623       -0.79834       -0.98770
C         -2.96114        0.29479       -0.56999
O         -2.17671        1.06374        0.07931
C         -4.38605        0.67521       -0.78662
H         -4.97962        0.30415        0.06327
H         -4.48836        1.76692       -0.82806
H         -4.76750        0.20824       -1.70318
C          1.67588        0.88601       -2.14829
H          2.48891        0.87164       -2.89099
H          1.13608       -0.06986       -2.21200
H          0.98323        1.69818       -2.41798
C          3.12518        2.36102       -0.74086
H          3.50643        2.58560        0.26687
H          3.98853        2.21289       -1.40717
H          2.57398        3.24086       -1.10351
C          3.13782       -0.09889       -0.36158
H          3.96710       -0.18983       -1.07932
H          3.57263        0.03124        0.64133
H          2.56171       -1.03099       -0.38803
