33
Furan_H7_Int1_Sub21.log	Energy: -585056.3827181
C         -0.03723       -1.65347        0.55107
C          0.06161       -1.51933       -0.84705
C          1.30413       -1.55987        1.03873
O          1.37533       -1.40778       -1.19143
H         -0.61599       -1.82559       -1.64285
C          2.10879       -1.39803       -0.05340
H          1.62006       -1.57857        2.07738
C          3.57214       -1.17114       -0.21057
O         -2.51469       -0.37057       -0.65920
C         -3.26957       -0.89164        0.26932
O         -2.90867       -1.15631        1.40306
C         -4.68254       -1.13525       -0.20972
H         -5.19046       -0.16650       -0.32954
H         -4.67984       -1.62520       -1.19312
H         -5.22356       -1.74329        0.52486
H         -0.93894       -1.91149        1.11318
Pd        -0.73872        0.34751       -0.18202
O         -1.01220        2.46824        0.03019
C          0.22939        2.56961        0.20611
O          0.92613        1.49969        0.17327
C          0.89246        3.88738        0.42375
H          1.64129        3.80156        1.22266
H          1.41915        4.17592       -0.49870
H          0.14804        4.65400        0.66880
H          3.94673       -1.99149       -0.85162
C          3.83496        0.15033       -0.93881
H          4.91615        0.29470       -1.08213
H          3.34991        0.16167       -1.92481
H          3.43031        0.99200       -0.35805
C          4.28635       -1.23640        1.13216
H          4.11392       -2.19638        1.64117
H          5.37045       -1.11821        0.99255
H          3.94367       -0.42758        1.79638
