36
Furan_H7_Int1_Sub4.log	Energy: -609702.8994263
C          1.00960       -0.02643        1.40042
C          1.36653        0.86342        0.36555
C          0.46874        0.79278        2.45948
O          1.04527        2.12190        0.75738
C          2.33010        0.78022       -0.79704
C          0.50240        2.06403        1.99669
H          0.07514        0.44429        3.41044
H          0.15296        3.00928        2.40352
O          0.04606       -1.94834       -0.58711
C         -0.10344       -2.91277        0.28287
O         -0.46362       -2.75441        1.43482
C          0.23881       -4.26729       -0.29327
H         -0.40640       -4.47610       -1.15870
H          1.27779       -4.27066       -0.65456
H          0.10437       -5.04032        0.47229
H          1.32781       -1.06086        1.50114
Pd        -0.62699       -0.17276       -0.04301
O         -2.54802       -0.10824       -0.95774
C         -2.68593        1.06332       -0.51295
O         -1.72445        1.55557        0.16381
C         -3.90942        1.86834       -0.78878
H         -4.10442        2.55941        0.04109
H         -3.74019        2.46354       -1.69946
H         -4.76762        1.20702       -0.96034
C          1.63260        1.22774       -2.08722
H          2.36271        1.28201       -2.90914
H          0.84325        0.51646       -2.37476
H          1.17475        2.22070       -1.96571
C          3.49697        1.73210       -0.48578
H          3.98446        1.46517        0.46458
H          4.24943        1.65996       -1.28550
H          3.15919        2.77549       -0.41909
C          2.86529       -0.64298       -0.94339
H          3.55754       -0.68378       -1.79754
H          3.42346       -0.95009       -0.04531
H          2.05198       -1.36117       -1.11339
