27
Furan_H6_Int1_Sub22.log	Energy: -535756.8941500
C          0.05374       -1.65256        0.51854
C          0.10939       -1.71935       -0.88603
O          1.30743       -1.79948        1.01496
C          1.49509       -1.90011       -1.21091
H         -0.74741       -1.84322       -1.54705
C          2.16823       -1.91648       -0.02514
H          1.93459       -1.97219       -2.20218
C          3.60396       -1.98002        0.31355
O         -2.14739        0.07930       -0.61558
C         -2.97220       -0.35986        0.29510
O         -2.65232       -0.80638        1.38336
C         -4.41595       -0.24826       -0.13957
H         -4.70532        0.81338       -0.14575
H         -4.54291       -0.62595       -1.16343
H         -5.05745       -0.79808        0.55913
H         -0.78518       -1.74922        1.21343
Pd        -0.24110        0.36175       -0.19456
O         -0.00092        2.49528       -0.11327
C          1.22771        2.30494        0.08480
O          1.64653        1.09957        0.11973
C          2.17102        3.43760        0.30825
H          2.18079        3.67758        1.38280
H          3.18749        3.15534        0.00672
H          1.83028        4.32621       -0.23773
H          3.93021       -1.01353        0.72839
H          4.19906       -2.19777       -0.58159
H          3.79391       -2.75462        1.07159
