24
Furan_H7_Int1_Sub2.log	Energy: -799414.0100911
C          0.60766        1.29085        1.10269
C          0.46213        1.66763       -0.25123
C         -0.46658        1.95937        1.78639
O         -0.58797        2.51828       -0.38131
Cl         1.61788        1.77241       -1.50121
C         -1.14530        2.65848        0.84350
H         -0.70427        1.88629        2.84443
H         -2.04865        3.26216        0.88012
O          1.49202       -1.14695       -0.43967
C          2.38581       -1.39686        0.47426
O          2.33019       -1.04285        1.64040
C          3.55069       -2.18709       -0.07696
H          3.19184       -3.14851       -0.47154
H          4.00548       -1.64107       -0.91602
H          4.29169       -2.35491        0.71320
H          1.45903        0.76345        1.54591
Pd        -0.27262       -0.37047       -0.04071
O         -1.60227       -1.99176       -0.42823
C         -2.56579       -1.20887       -0.20887
O         -2.28832       -0.00181        0.09845
C         -3.98128       -1.65585       -0.33162
H         -4.64064       -1.00931        0.26029
H         -4.27886       -1.58845       -1.38951
H         -4.07258       -2.70410       -0.01979
