33
Furan_H6_Int1_Sub13.log	Energy: -585052.9079446
C          0.01098       -1.10391        1.46502
C          0.67843       -1.42536        0.26945
O          0.89451       -0.58024        2.34115
C          2.05761       -1.03520        0.46635
H          0.28285       -2.06549       -0.51868
C          2.09965       -0.52827        1.72627
C          3.15628       -1.07694       -0.55269
H          2.90450       -0.07213        2.29823
O         -1.88568       -0.82559       -0.88891
C         -2.85498       -1.32604       -0.17197
O         -2.92844       -1.28056        1.04375
C         -3.91767       -1.98139       -1.02402
H         -4.46190       -1.20239       -1.57864
H         -3.46011       -2.64950       -1.76670
H         -4.61679       -2.53389       -0.38538
H         -0.97598       -1.38584        1.84144
Pd        -0.54938        0.36386       -0.05832
O         -1.06820        2.32683       -0.74102
C         -0.04946        2.76053       -0.14069
O          0.67957        1.91493        0.47921
C          0.29048        4.21117       -0.11624
H         -0.20606        4.67117        0.75221
H          1.37356        4.34818       -0.00636
H         -0.08008        4.70243       -1.02451
H          4.08502       -0.77933       -0.03625
C          3.35419       -2.48299       -1.11472
H          4.18902       -2.50184       -1.83167
H          3.57039       -3.20913       -0.31708
H          2.45390       -2.82596       -1.64964
C          2.88362       -0.05793       -1.66141
H          2.73847        0.94843       -1.24262
H          3.71703       -0.02659       -2.38004
H          1.96865       -0.32060       -2.21722
