33
Furan_H6_Int1_Sub5.log	Energy: -585052.1033671
C         -0.71396        0.75909       -1.31548
C         -1.00789        1.38956       -0.08465
O          0.09855        1.56925       -2.05587
C         -0.25765        2.61882       -0.11264
C         -2.14076        1.09127        0.86148
C          0.37611        2.65142       -1.31328
H         -0.19824        3.36924        0.67138
H          1.06812        3.36599       -1.75380
O         -0.91262       -1.65248        0.45284
C         -1.46208       -2.35416       -0.49996
O         -1.33955       -2.14166       -1.69418
C         -2.29673       -3.49465        0.03735
H         -1.63256       -4.23858        0.50199
H         -2.97962       -3.13671        0.82063
H         -2.85865       -3.96157       -0.78004
H         -1.21353       -0.05168       -1.85413
Pd         0.51000       -0.34202        0.04555
O          2.28584       -1.27947        0.80021
C          2.92657       -0.25563        0.44330
O          2.27120        0.69768       -0.09561
C          4.40525       -0.15906        0.60457
H          4.88270       -0.58395       -0.29199
H          4.71285        0.89012        0.69604
H          4.72956       -0.74279        1.47514
H         -2.46298        0.05870        0.67019
C         -1.70720        1.18288        2.32019
H         -2.55456        0.96054        2.98575
H         -0.90596        0.46185        2.53915
H         -1.34251        2.19150        2.57301
C         -3.30603        2.03371        0.55241
H         -3.62491        1.94763       -0.49699
H         -4.16871        1.79219        1.19200
H         -3.03203        3.08443        0.73766
