27
Furan_H6_Int1_Sub14.log	Energy: -535752.9301275
C         -0.12889       -1.50522        1.00942
C          0.10491       -1.82755       -0.33945
O          1.01624       -1.66225        1.70755
C          1.50249       -2.18672       -0.42818
H         -0.66485       -2.01470       -1.08801
C          1.97797       -2.04827        0.83793
C          2.24909       -2.56660       -1.65858
H          2.97524       -2.16646        1.25566
O         -1.95820        0.13940       -0.76843
C         -2.93391       -0.01920        0.08365
O         -2.80155       -0.23918        1.27530
C         -4.29110        0.11107       -0.56900
H         -4.45692        1.16478       -0.83925
H         -4.33211       -0.47346       -1.49837
H         -5.07129       -0.21479        0.12890
H         -1.05776       -1.37248        1.57133
Pd        -0.10419        0.35501       -0.12979
O          0.32337        2.43685       -0.39004
C          1.49490        2.20193        0.00954
O          1.78854        0.99692        0.31106
C          2.50424        3.28720        0.16425
H          2.39807        3.72143        1.17049
H          3.51952        2.88311        0.06657
H          2.32196        4.08026       -0.57176
H          2.28134       -1.72660       -2.37013
H          1.77041       -3.41486       -2.17163
H          3.28403       -2.85062       -1.42437
