40
Furan_H7_Int1_Sub11.log	Energy: -658253.5632305
C         -0.29533       -0.74107        1.27650
C          0.74101       -0.39474        2.16007
C         -1.30364        0.28034        1.42906
O          0.39049        0.71672        2.85087
H          1.55909       -0.98309        2.57322
C         -0.81587        1.11755        2.38300
C         -2.54339        0.40882        0.60546
H         -1.19816        2.04770        2.79728
O          2.17313       -1.71279        0.04282
C          1.55124       -2.56823       -0.72196
O          0.44993       -2.38840       -1.21533
C          2.34838       -3.83101       -0.94907
H          3.19523       -3.60219       -1.61342
H          2.76662       -4.20246       -0.00351
H          1.71311       -4.59181       -1.41769
H         -0.40542       -1.67534        0.72456
Pd         1.40397        0.10156        0.15310
O          2.35597        1.23644       -1.38777
C          1.72234        2.24753       -0.98241
O          0.94561        2.09904        0.01936
C          1.88510        3.58288       -1.62364
H          1.00954        4.21290       -1.42466
H          2.77461        4.07118       -1.19648
H          2.04869        3.46408       -2.70236
H         -3.09759        1.29437        0.96662
C         -3.46220       -0.81101        0.74410
H         -3.74151       -0.95022        1.80109
H         -2.90092       -1.71425        0.44437
C         -4.70371       -0.67987       -0.13076
H         -5.33041       -1.58079       -0.03209
H         -5.31627        0.16494        0.23391
C         -4.33657       -0.44135       -1.59150
H         -5.24676       -0.31604       -2.19995
H         -3.81784       -1.33409       -1.98441
C         -3.42309        0.77035       -1.74132
H         -3.97816        1.68303       -1.45625
H         -3.12946        0.90290       -2.79497
C         -2.18058        0.64291       -0.86940
H         -1.56624       -0.20710       -1.21862
H         -1.54384        1.53803       -0.94762
