33
Furan_H7_Int1_Sub5.log	Energy: -585055.1739579
C         -0.91581       -0.58640        1.39590
C         -1.04470       -1.25524        0.15760
C         -0.15646       -1.46676        2.24489
O         -0.40707       -2.45744        0.25401
C         -2.05979       -1.14412       -0.93972
C          0.12695       -2.55617        1.49054
H          0.16021       -1.27472        3.26654
H          0.71605       -3.44995        1.68138
O         -0.90202        1.65049       -0.52766
C         -1.25378        2.53454        0.36736
O         -0.93891        2.49685        1.54342
C         -2.11355        3.63347       -0.21382
H         -1.51140        4.23101       -0.91423
H         -2.94893        3.20678       -0.78682
H         -2.48916        4.27575        0.59131
H         -1.46069        0.30083        1.71909
Pd         0.47864        0.32606       -0.02932
O          2.30475        1.14027       -0.78866
C          2.88604        0.08822       -0.40941
O          2.17868       -0.81039        0.15507
C          4.34403       -0.12461       -0.63487
H          4.73730       -0.86647        0.07089
H          4.48962       -0.50032       -1.65945
H          4.88084        0.82836       -0.54400
H         -2.37431       -0.09051       -0.94403
C         -1.46041       -1.48229       -2.30075
H         -2.22596       -1.39547       -3.08553
H         -0.63577       -0.79864       -2.55132
H         -1.06995       -2.51118       -2.31559
C         -3.26193       -2.03057       -0.60609
H         -3.70041       -1.76416        0.36717
H         -4.04143       -1.91688       -1.37436
H         -2.97033       -3.09151       -0.57163
