27
Furan_H6_Int1_Sub9.log	Energy: -722494.6487466
C         -0.08463       -1.04841        1.44093
C          0.57457       -1.34255        0.23557
O          0.78510       -0.44698        2.29265
C          1.91877       -0.85557        0.41816
H          0.22545       -2.02504       -0.53867
C          1.96416       -0.31777        1.66378
C          3.00987       -0.86749       -0.59301
H          2.75476        0.19587        2.20506
O         -2.05390       -0.91642       -0.87480
C         -2.94387       -1.52126       -0.13487
O         -2.95816       -1.52886        1.08422
C         -3.99394       -2.22422       -0.96216
H         -4.64227       -1.46834       -1.43029
H         -3.52747       -2.80005       -1.77309
H         -4.59704       -2.87610       -0.31942
H         -1.04069       -1.39773        1.84312
Pd        -0.77971        0.35383       -0.07113
O         -1.44381        2.27323       -0.72495
C         -0.44083        2.77218       -0.14758
O          0.34989        1.97006        0.45593
C         -0.18917        4.23904       -0.13108
H         -0.71961        4.67500        0.72971
H          0.88310        4.44128       -0.01746
H         -0.58320        4.69921       -1.04581
F          3.21684       -2.09720       -1.07074
F          4.15579       -0.42997       -0.06804
F          2.71529       -0.08754       -1.63721
