27
Furan_H7_Int1_Sub6.log	Energy: -535755.0684890
C          0.50370        1.60561        0.82209
C          0.16678        1.87673       -0.52340
C         -0.60563        2.07620        1.60978
O         -1.06141        2.46790       -0.54612
C          0.99212        2.05903       -1.74504
C         -1.50963        2.56158        0.72487
H         -0.71122        2.01270        2.68944
H         -2.51155        2.96665        0.84417
O          1.78211       -0.63109       -0.59620
C          2.60770       -0.90479        0.37902
O          2.35238       -0.77060        1.56226
C          3.94108       -1.41434       -0.11761
H          3.79926       -2.40159       -0.58186
H          4.34594       -0.74715       -0.89163
H          4.64187       -1.49851        0.72124
H          1.48197        1.31638        1.20614
Pd        -0.10478       -0.27677       -0.12097
O         -1.08523       -2.16006       -0.34942
C         -2.17303       -1.58455       -0.07615
O         -2.13863       -0.33139        0.15755
C         -3.46563       -2.32631       -0.05352
H         -4.20806       -1.78590        0.54628
H         -3.83930       -2.41245       -1.08551
H         -3.30887       -3.34081        0.33498
H          0.40547        1.82118       -2.64327
H          1.86590        1.39902       -1.70443
H          1.32000        3.10887       -1.81553
