28
Furan_H6_Int1_Sub16.log	Energy: -582911.9255692
C          0.02722       -1.18826        1.38470
C          0.40710       -1.65696        0.11160
O          1.12040       -0.98701        2.13726
C          1.85048       -1.71432        0.14990
H         -0.25739       -2.13755       -0.60468
C          2.21489       -1.28355        1.39161
O          2.69497       -2.07039       -0.82292
H          3.18546       -1.11405        1.84693
O         -1.95690       -0.30983       -0.78265
C         -2.94509       -0.55580        0.03445
O         -2.87039       -0.55436        1.25089
C         -4.23672       -0.84116       -0.69673
H         -4.60381        0.09234       -1.14911
H         -4.07015       -1.55549       -1.51473
H         -4.98446       -1.22532        0.00700
H         -0.95044       -1.17006        1.87375
Pd        -0.25926        0.42201       -0.09047
O         -0.28264        2.47850       -0.67017
C          0.87203        2.58719       -0.17613
O          1.39586        1.54317        0.33761
C          1.59838        3.88753       -0.15319
H          1.31925        4.42682        0.76528
H          2.68249        3.71952       -0.13986
H          1.30357        4.50047       -1.01411
C          2.12929       -2.32713       -2.08366
H          1.47582       -3.21670       -2.06454
H          1.54779       -1.46200       -2.44773
H          2.96177       -2.51614       -2.77232
