33
Furan_H7_Int1_Sub13.log	Energy: -585053.3134526
C         -0.86303       -1.17377        0.63140
C         -0.42619       -0.67437        1.87029
C         -2.15816       -0.58030        0.40059
O         -1.38714        0.12102        2.39927
H          0.33944       -1.03043        2.55818
C         -2.39652        0.18504        1.49868
C         -2.97739       -0.72326       -0.84630
H         -3.21830        0.84944        1.75636
O          2.06647       -1.04943        0.50203
C          2.13745       -1.92847       -0.46020
O          1.31286       -2.05436       -1.35044
C          3.37318       -2.79224       -0.36728
H          4.25204       -2.18533       -0.63211
H          3.52148       -3.14975        0.66092
H          3.28968       -3.63547       -1.06296
H         -0.40860       -1.97644        0.04855
Pd         0.69497        0.35916        0.32786
O          1.65823        1.99368       -0.65600
C          0.59339        2.65373       -0.52060
O         -0.38715        2.08486        0.06607
C          0.47776        4.06044       -0.99866
H         -0.57427        4.32549       -1.16020
H          0.89472        4.72776       -0.22861
H          1.06387        4.19450       -1.91681
H         -3.90539       -0.14558       -0.69441
C         -2.22150       -0.12342       -2.03433
H         -2.82800       -0.17916       -2.95133
H         -1.96517        0.92871       -1.84331
H         -1.28140       -0.67089       -2.21236
C         -3.35598       -2.18129       -1.10167
H         -3.90883       -2.60993       -0.25239
H         -3.98644       -2.26623       -1.99985
H         -2.45794       -2.79680       -1.27033
