39
Imidazole_H6_deriv1_Int1_Sub6.log	Energy: -631978.9481334
C         -0.15570       -1.42888        0.50782
C          0.11702       -1.53643       -0.88719
N          1.08992       -1.17114        1.06543
C         -0.74533       -2.09426       -1.96345
N          1.43573       -1.26920       -1.11604
C          1.98279       -1.02818        0.05938
H          1.24785       -0.92547        2.03338
C          3.42598       -0.65440        0.26487
O         -2.73842       -0.33109       -0.39400
C         -3.37444       -0.83989        0.62321
O         -2.88613       -1.06484        1.71919
C         -4.82240       -1.13993        0.30705
H         -5.28412       -1.67381        1.14590
H         -5.35697       -0.19525        0.12826
H         -4.89875       -1.73353       -0.61499
H         -0.98227       -1.81446        1.11041
Pd        -0.93889        0.44679       -0.12932
O         -1.19924        2.59427       -0.26466
C          0.04036        2.70749       -0.10298
O          0.72563        1.63906        0.05530
C          0.72290        4.03410       -0.12584
H          0.00894        4.83445        0.10287
H          1.56200        4.04289        0.58207
H          1.12931        4.20172       -1.13530
C          3.80964        0.38021       -0.79825
H          4.87262        0.64685       -0.69434
H          3.63931       -0.02408       -1.80515
H          3.19521        1.28497       -0.68884
C          3.63874       -0.07013        1.66178
H          3.42668       -0.80516        2.45599
H          4.68858        0.23381        1.78326
H          3.00798        0.81911        1.81598
C          4.26653       -1.92786        0.08380
H          5.33662       -1.69069        0.18791
H          4.00868       -2.68898        0.83653
H          4.09978       -2.35991       -0.91338
H         -0.54925       -1.56789       -2.90740
H         -1.80875       -2.01018       -1.71323
H         -0.48518       -3.15464       -2.11467
