36
Imidazole_H6_deriv1_Int1_Sub2.log	Energy: -895641.7668254
C         -0.18615       -1.20270        0.76550
C          0.04431       -1.51079       -0.60450
N          1.10708       -0.98124        1.23102
Cl        -1.07079       -2.20642       -1.69124
N          1.34486       -1.39548       -0.92941
C          1.96148       -1.04533        0.19025
H          1.33385       -0.63954        2.15577
C          3.43538       -0.76470        0.28530
O         -2.73144        0.05138       -0.17028
C         -3.37076       -0.60742        0.74847
O         -2.89203       -1.04790        1.78381
C         -4.82593       -0.81262        0.39188
H         -5.35252       -1.28179        1.23112
H         -5.29217        0.14748        0.13078
H         -4.89031       -1.45848       -0.49652
H         -1.03123       -1.47066        1.41565
Pd        -0.86585        0.65835       -0.00584
O         -0.95246        2.78834       -0.38842
C          0.29640        2.81372       -0.27234
O          0.89599        1.71625        0.00265
C          1.08519        4.06286       -0.47758
H          0.44575        4.94371       -0.34437
H          1.94014        4.09098        0.21065
H          1.47782        4.06402       -1.50626
C          3.82057        0.15979       -0.87561
H          4.90270        0.35912       -0.84895
H          3.56851       -0.30638       -1.83782
H          3.27361        1.11045       -0.80472
C          3.77097       -0.09722        1.61886
H          3.54788       -0.75135        2.47806
H          4.84631        0.12771        1.66183
H          3.22320        0.85120        1.73386
C          4.17296       -2.10620        0.15434
H          5.26070       -1.93849        0.17409
H          3.91517       -2.78813        0.97933
H          3.91237       -2.59836       -0.79352
