27
Imidazole_H6_Int1_Sub6.log	Energy: -533373.9873668
C          0.50197        1.54890        0.76287
C          0.24078        1.93145       -0.58344
N         -0.57470        2.05389        1.47224
C          1.17458        1.98063       -1.74243
N         -0.97468        2.57377       -0.64630
C         -1.42649        2.60749        0.57922
H         -0.75874        1.88007        2.45195
H         -2.39020        3.02013        0.88074
O          1.74231       -0.79138       -0.56598
C          2.62197       -0.92304        0.38616
O          2.46138       -0.57743        1.54627
C          3.90457       -1.56101       -0.09658
H          4.65486       -1.54032        0.70246
H          3.70217       -2.60174       -0.38995
H          4.27930       -1.04093       -0.98952
H          1.42282        1.23525        1.26206
Pd        -0.12359       -0.31295       -0.11379
O         -1.23820       -2.13581       -0.35573
C         -2.27438       -1.48771       -0.05755
O         -2.14216       -0.24759        0.21935
C         -3.62442       -2.12005       -0.05706
H         -3.54416       -3.18284        0.20338
H         -4.29432       -1.59389        0.63443
H         -4.04539       -2.04506       -1.07168
H          0.62784        1.76493       -2.67049
H          1.99538        1.26381       -1.63152
H          1.58317        3.00057       -1.82733
