49
Imidazole_H6_deriv1_Int1_Sub11.log	Energy: -729822.6228309
C         -0.69145       -1.21892        0.62178
C         -0.47585       -1.19292       -0.77895
N          0.37325       -0.50643        1.12564
H         -0.98206       -1.80227       -1.52752
N          0.65485       -0.47635       -1.07025
C          1.12277       -0.05269        0.08145
H          0.49577       -0.24749        2.09491
C          2.33454        0.82759        0.23434
O         -3.39024       -1.29225       -0.71635
C         -3.81211       -2.14775        0.17133
O         -3.37872       -2.26411        1.30652
C         -4.93781       -3.01011       -0.35298
H         -5.13819       -3.82763        0.34951
H         -5.84060       -2.39095       -0.46410
H         -4.69018       -3.40490       -1.34796
H         -1.35165       -1.84225        1.23309
Pd        -2.15634        0.15839       -0.20128
O         -3.33209        1.97239       -0.22877
C         -2.28200        2.60171        0.05279
O         -1.20595        1.92989        0.21493
C         -2.25808        4.08882        0.16334
H         -3.25748        4.46814        0.40869
H         -1.52231        4.40376        0.91452
H         -1.95362        4.50682       -0.80875
C          2.12081        2.03918       -0.68552
H          2.92938        2.77302       -0.55902
H          2.08513        1.72089       -1.73667
H          1.16332        2.52422       -0.44853
C          2.46666        1.31231        1.67933
H          2.60952        0.48800        2.39555
H          3.33244        1.98084        1.78025
H          1.57498        1.88754        1.97460
C          3.56043       -0.01228       -0.23661
H          3.31908       -0.30453       -1.27510
H          2.81418       -1.89107        0.56617
C          3.74878       -1.30698        0.55829
H          3.97862       -1.06483        1.61180
C          4.88183       -2.15679       -0.00747
H          5.00521       -3.07194        0.59388
H          4.60848       -2.48827       -1.02517
C          6.18833       -1.37509       -0.06628
H          6.98520       -1.98742       -0.51847
H          6.51984       -1.14449        0.96271
C          6.01228       -0.07370       -0.83871
H          5.79458       -0.30626       -1.89660
H          6.94893        0.50693       -0.83601
C          4.87391        0.77098       -0.27263
H          5.14163        1.09336        0.74978
H          4.76240        1.68669       -0.87227
