48
Imidazole_H6_deriv1_Int1_Sub4.log	Energy: -705927.5069548
C         -0.15680       -0.94798        0.91450
C          0.37495       -1.57353       -0.25613
N          0.98234       -0.40243        1.52216
C         -0.31846       -2.47540       -1.24608
N          1.68641       -1.29764       -0.36907
C          2.02392       -0.57634        0.69917
H          0.95714        0.17945        2.34992
C          3.40645       -0.04300        0.95090
O         -2.78737        0.08748        0.23367
C         -3.16319        0.11377        1.48021
O         -2.42347        0.32962        2.42861
C         -4.63753       -0.17270        1.65096
H         -4.90272       -0.14688        2.71436
H         -5.22623        0.57220        1.09641
H         -4.87905       -1.15751        1.22479
H         -0.98821       -1.26698        1.54111
Pd        -0.94480        0.69496       -0.15683
O         -1.15266        2.60049       -1.17365
C          0.09883        2.64212       -1.24489
O          0.76276        1.67081       -0.74149
C          0.82166        3.76865       -1.90538
H          0.12403        4.57395       -2.16295
H          1.61212        4.14349       -1.24006
H          1.30824        3.39474       -2.81866
C          3.93801        0.55932       -0.35444
H          4.96512        0.92557       -0.20423
H          3.94145       -0.19664       -1.15127
H          3.29688        1.38928       -0.68224
C          3.38151        1.02088        2.04823
H          3.05317        0.61029        3.01729
H          4.39290        1.42491        2.19965
H          2.72131        1.85777        1.77199
C          4.28649       -1.23012        1.37378
H          5.32303       -0.89237        1.52684
H          3.92899       -1.67991        2.31295
H          4.28402       -2.00766        0.59638
C         -1.71724       -2.85225       -0.76153
H         -2.20284       -3.50536       -1.50212
H         -1.67217       -3.40496        0.19028
H         -2.34970       -1.96428       -0.61648
C         -0.39846       -1.75151       -2.59759
H          0.59889       -1.41603       -2.91717
H         -0.80617       -2.42837       -3.36440
H         -1.05411       -0.86920       -2.52948
C          0.54249       -3.73793       -1.39783
H          0.07929       -4.41685       -2.12999
H          1.55458       -3.48148       -1.73944
H          0.62967       -4.27592       -0.44112
