24
Imidazole_H6_Int1_Sub2.log	Energy: -797036.0882469
C          0.57439        1.26485        1.01709
C          0.50993        1.75463       -0.31596
N         -0.46303        1.94053        1.63868
Cl         1.73446        1.66311       -1.50463
N         -0.53097        2.61685       -0.47423
C         -1.09771        2.68200        0.70453
H         -0.77346        1.77802        2.58848
H         -1.99505        3.25828        0.93170
O          1.44438       -1.25001       -0.39087
C          2.39612       -1.37269        0.48469
O          2.40775       -0.88550        1.60626
C          3.55341       -2.18861       -0.04411
H          4.28478       -2.35841        0.75461
H          3.19159       -3.14432       -0.44771
H          4.02750       -1.64285       -0.87353
H          1.38942        0.75700        1.55187
Pd        -0.29639       -0.40802       -0.01858
O         -1.71336       -1.95855       -0.46369
C         -2.62909       -1.13585       -0.20600
O         -2.28520        0.03717        0.16914
C         -4.06885       -1.48642       -0.36136
H         -4.21864       -2.55823       -0.18116
H         -4.68631       -0.88202        0.31486
H         -4.37131       -1.26565       -1.39681
