36
Imidazole_H6_deriv1_Int1_Sub9.log	Energy: -794070.7691463
C         -0.30012       -1.37422        0.30003
C         -0.30294       -1.20040       -1.10539
N          0.93391       -0.91853        0.68887
H         -1.00451       -1.63413       -1.81768
N          0.89461       -0.65643       -1.51123
C          1.59785       -0.48497       -0.42317
H          1.28122       -0.87944        1.63849
C          2.95681        0.16654       -0.37319
O         -3.13637       -0.89194       -0.57649
C         -3.56076       -1.72963        0.32792
O         -2.98608       -1.99288        1.37210
C         -4.88131       -2.36053       -0.04811
H         -5.10910       -3.18324        0.63973
H         -5.67224       -1.59822        0.01494
H         -4.85637       -2.71807       -1.08669
H         -0.97578       -1.93173        0.95715
Pd        -1.62317        0.31122       -0.18771
O         -2.50624        2.24195        0.15094
C         -1.34332        2.70556        0.26614
O         -0.36349        1.89167        0.15684
C         -1.09071        4.15781        0.48828
H         -1.96811        4.63035        0.94617
H         -0.19848        4.29785        1.11220
H         -0.90418        4.63463       -0.48648
C          3.49353        0.33317       -1.79376
H          4.48205        0.81074       -1.76721
H          3.57185       -0.63506       -2.30473
H          2.80294        0.95908       -2.37173
C          2.86150        1.52586        0.33511
H          2.50795        1.42308        1.37022
H          3.84745        2.01139        0.34860
H          2.14264        2.16065       -0.19687
C          3.91202       -0.73631        0.41206
F          5.14140       -0.22758        0.45306
F          3.51134       -0.88808        1.69147
F          3.99179       -1.95624       -0.11650
