34
Indolizine_H13_Int1_Sub25.log	Energy: -806378.8312993
C         -0.55065       -1.06081       -1.02732
C          0.12086       -0.45613       -2.14642
N          0.48437       -1.28417       -0.07228
C          1.43502       -0.21149       -1.82657
H         -0.37567       -0.21892       -3.08615
C          1.65578       -0.72909       -0.52188
C          0.34962       -1.89278        1.12945
H          2.18295        0.30203       -2.42413
C          2.77608       -0.76962        0.33525
C          1.43990       -1.97022        1.95898
H         -0.66601       -2.24202        1.34984
C          2.66300       -1.39339        1.55982
C          4.06117       -0.13101       -0.11231
H          1.34160       -2.45981        2.92753
H          3.52983       -1.43100        2.22143
O         -3.29790       -0.44025       -0.51329
C         -3.50249       -1.51046        0.18263
O         -2.66150       -2.08877        0.86576
C         -4.92564       -2.01325        0.09634
H         -4.99265       -3.02689        0.50917
H         -5.57408       -1.34068        0.67811
H         -5.28296       -1.99076       -0.94219
H         -1.28865       -1.86077       -1.11220
Pd        -1.59799        0.55960       -0.27595
O         -2.09255        2.47459        0.63746
C         -0.86645        2.73852        0.60208
O         -0.07157        1.85997        0.11974
C         -0.32535        4.04825        1.07219
H         -0.25638        4.73022        0.21059
H         -0.99918        4.49295        1.81471
H          0.68385        3.91768        1.48358
F          5.02688       -0.28745        0.79221
F          3.90668        1.17763       -0.32192
F          4.49058       -0.66351       -1.26155
