31
Indolizine_H14_Int1_Sub26.log	Energy: -883302.7057421
C          0.07534       -0.62582        2.15479
C         -1.13615       -0.07733        2.47140
C         -0.01320       -1.20682        0.83452
H         -1.45554        0.51562        3.32423
N         -2.01940       -0.32345        1.42723
C         -1.37814       -1.04312        0.43889
H          0.61074       -2.02267        0.47044
C         -3.31010        0.08851        1.30582
C         -2.11725       -1.42173       -0.69641
C         -4.03212       -0.27167        0.20023
H         -3.70551        0.69338        2.12140
C         -3.43826       -1.04729       -0.81855
Cl        -1.31821       -2.32387       -1.91908
H         -5.06954        0.05198        0.11257
H         -4.00433       -1.34016       -1.70341
O          2.38918       -0.61755       -0.63775
C          3.19342       -1.02456        0.30089
O          2.99817       -0.90969        1.49965
C          4.44754       -1.66574       -0.25313
H          4.19775       -2.38516       -1.04523
H          5.07657       -0.88616       -0.70867
H          5.00289       -2.15671        0.55496
H          0.98964       -0.62238        2.74421
Pd         0.82657        0.48047       -0.15097
O          1.17631        2.42480       -1.04191
C          0.05290        2.77174       -0.60345
O         -0.63626        1.91437        0.04688
C         -0.47060        4.15766       -0.79417
H         -0.02658        4.61031       -1.68931
H         -1.56606        4.14661       -0.86215
H         -0.18649        4.76492        0.07923
