34
Indolizine_H13_Int1_Sub30.log	Energy: -619638.7528130
C          0.02573       -1.04005       -1.05301
C          0.64989       -0.43345       -2.20309
N          1.10352       -1.26135       -0.14206
C          1.97135       -0.18386       -1.93353
H          0.11234       -0.19644       -3.12002
C          2.25212       -0.70231       -0.63471
C          1.02259       -1.87512        1.06206
H          2.68936        0.33698       -2.56199
C          3.42602       -0.72150        0.15036
C          2.15389       -1.94297        1.83490
H          0.02242       -2.23348        1.32815
C          3.35251       -1.35580        1.37799
C          4.66927       -0.06891       -0.36336
H          2.10680       -2.43526        2.80638
H          4.24364       -1.39546        2.00963
O         -2.70723       -0.46221       -0.44762
C         -2.88163       -1.53774        0.24844
O         -2.01920       -2.11322        0.90524
C         -4.30330       -2.05272        0.19609
H         -4.35577       -3.05893        0.62877
H         -4.94880       -1.37333        0.77306
H         -4.67627       -2.05414       -0.83739
H         -0.70016       -1.85356       -1.11593
Pd        -1.01214        0.55895       -0.26481
O         -1.50087        2.47812        0.66361
C         -0.28076        2.75561        0.58388
O          0.51131        1.89073        0.07486
C          0.25887        4.07415        1.03658
H          0.34632        4.73910        0.16349
H         -0.42264        4.53519        1.76172
H          1.26113        3.94704        1.46632
H          4.50318        1.00679       -0.53388
H          4.98218       -0.50627       -1.32487
H          5.49854       -0.17963        0.34779
