31
Indolizine_H14_Int1_Sub18.log	Energy: -883300.5034475
C          0.05485       -1.40928        1.45605
C         -1.25886       -1.06261        1.60674
C          0.33645       -1.55716        0.04814
H         -1.83066       -0.77824        2.48378
N         -1.84896       -1.03019        0.34737
C         -0.91657       -1.37387       -0.62251
H          1.13616       -2.17619       -0.35817
C         -3.11881       -0.67352        0.00324
C         -1.31492       -1.45637       -1.96221
C         -3.52438       -0.73118       -1.30602
Cl        -4.15960       -0.17770        1.26611
C         -2.61383       -1.14302       -2.30049
H         -0.57591       -1.74679       -2.70941
H         -4.54868       -0.45094       -1.54889
H         -2.94384       -1.19731       -3.33921
O          2.86060       -0.34564       -0.61523
C          3.52010       -0.97945        0.31120
O          3.08143       -1.28541        1.40738
C          4.93906       -1.30028       -0.10661
H          4.96259       -1.70953       -1.12602
H          5.52660       -0.36977       -0.11596
H          5.38634       -2.00494        0.60469
H          0.80549       -1.52886        2.23413
Pd         1.09537        0.41620       -0.17316
O          1.32769        2.56425       -0.33059
C          0.10535        2.66621       -0.06357
O         -0.56504        1.59476        0.12303
C         -0.56125        3.99548        0.07360
H         -0.03280        4.74810       -0.52448
H         -1.61574        3.92678       -0.22304
H         -0.52121        4.30150        1.13049
