40
Indole_H14_Int1_Sub13.log	Energy: -668950.5037514
C          0.16378       -0.84383        1.14227
C          1.53244       -0.47264        0.84741
C         -0.28210        0.05547        2.14138
C          1.84691        0.62745        1.67496
C          2.46624       -0.97122       -0.08016
H         -1.16957       -0.02361        2.76861
N          0.74655        0.89720        2.46647
C          3.08398        1.26811        1.62016
C          3.70637       -0.33573       -0.11347
C          2.07836       -2.09482       -1.01585
H          0.65438        1.70602        3.06476
C          4.00612        0.75762        0.71685
H          3.31790        2.12549        2.25377
H          4.47159       -0.68489       -0.80806
H          4.99297        1.22107        0.64397
O         -2.70974       -0.58609        0.71930
C         -2.83725       -1.75137        0.14824
O         -1.99996       -2.27303       -0.56932
C         -4.16092       -2.41068        0.46135
H         -4.96199       -1.86965       -0.06446
H         -4.14539       -3.45451        0.12631
H         -4.37960       -2.35184        1.53652
H         -0.31596       -1.78459        0.86985
Pd        -1.18034        0.53894        0.16353
O         -1.91464        1.85625       -1.37055
C         -0.77043        2.38204       -1.40116
O          0.10751        1.95480       -0.58076
C         -0.42033        3.44488       -2.38713
H          0.03617        2.96572       -3.26707
H         -1.32301        3.97842       -2.70895
H          0.31565        4.13629       -1.95715
H          1.51909       -2.83329       -0.41431
C          1.12219       -1.58060       -2.09828
H          0.86592       -2.39152       -2.79684
H          0.17765       -1.21795       -1.66865
H          1.58971       -0.76360       -2.67033
C          3.27029       -2.81322       -1.63497
H          3.98166       -3.16270       -0.87120
H          2.92766       -3.68840       -2.20658
H          3.81568       -2.16200       -2.33665
