50
Indole_H13_deriv1_Int1_Sub11.log	Energy: -766801.1430259
C          0.19413       -0.02382       -1.39590
C         -1.17702       -0.38292       -1.45747
N          0.31535        1.28124       -1.03526
C         -1.91132        0.82471       -1.13178
H         -1.55896       -1.23881       -2.01398
C         -0.95165        1.81967       -0.84497
C          1.55903        1.92355       -0.63454
C         -3.28473        1.09649       -1.02914
C         -1.31979        3.10264       -0.43916
C         -3.64409        2.38696       -0.64321
C         -4.29467        0.02581       -1.30196
C         -2.68165        3.36687       -0.35362
H         -0.57999        3.86667       -0.19665
H         -4.70385        2.63821       -0.55285
H         -3.01307        4.36158       -0.04635
O         -0.01634       -2.91917       -0.72324
C          1.22593       -3.10936       -1.05794
O          2.12198       -2.28457       -0.94364
C          1.47609       -4.49303       -1.61272
H          2.46951       -4.53611       -2.07472
H          1.42553       -5.22002       -0.78809
H          0.69749       -4.76763       -2.33749
H          1.06304       -0.60381       -1.70635
Pd        -0.45587       -1.30963        0.34498
O         -0.27292       -1.88553        2.41857
C         -0.65649       -0.72680        2.72366
O         -0.91857        0.08889        1.77779
C         -0.83027       -0.30054        4.14307
H         -0.30584       -0.98915        4.81616
H         -0.46636        0.72756        4.27238
H         -1.90375       -0.30740        4.38622
H         -4.13968       -0.83523       -0.63157
H         -4.20989       -0.35227       -2.33350
H         -5.31994        0.39246       -1.15778
H          1.44520        2.99160       -0.89126
C          2.75556        1.37812       -1.40688
H          2.57623        1.47442       -2.48990
H          2.87182        0.30270       -1.18749
C          4.03053        2.10980       -0.99945
H          4.88717        1.69431       -1.55259
H          3.95578        3.17223       -1.29482
C          4.27040        2.01719        0.50390
H          5.17519        2.58055        0.78277
H          4.46093        0.96334        0.77341
C          3.06466        2.52279        1.28871
H          2.94432        3.60821        1.11619
H          3.22804        2.40018        2.37112
C          1.78811        1.80212        0.87334
H          1.86241        0.72811        1.11710
H          0.91160        2.18419        1.41820
