34
Indolizine_H14_Int1_Sub6.log	Energy: -619635.2035705
C          0.02485       -1.27814       -1.45762
C         -0.09695       -1.42147       -0.02510
C         -1.21321       -0.99853       -2.00997
C          0.65225       -2.42872        0.80129
N         -1.49835       -1.28943        0.21650
C         -2.15622       -0.99771       -0.96144
H         -1.43737       -0.76812       -3.04838
C         -2.14094       -1.39586        1.40443
C         -3.54591       -0.76227       -0.90993
C         -3.49311       -1.19651        1.47070
H         -1.52019       -1.62885        2.26983
C         -4.20525       -0.86739        0.29083
H         -4.07032       -0.50807       -1.83161
H         -4.00168       -1.28482        2.43070
H         -5.28228       -0.69440        0.34094
O          2.48187       -0.03707        0.65518
C          3.30106       -0.68272       -0.11538
O          3.01647       -1.22132       -1.17496
C          4.70495       -0.73217        0.44976
H          5.09611        0.29035        0.55400
H          4.68853       -1.17487        1.45634
H          5.35462       -1.31801       -0.21115
H          0.99025       -1.40308       -1.95050
Pd         0.66387        0.53482        0.12466
O          0.73625        2.70876        0.32140
C         -0.48457        2.71705        0.03348
O         -1.06571        1.59921       -0.18144
C         -1.25508        3.99015       -0.09751
H         -0.80728        4.77064        0.53002
H         -1.21044        4.32145       -1.14659
H         -2.30819        3.82904        0.16637
H          0.80651       -2.10168        1.83885
H          1.63620       -2.58465        0.34453
H          0.11396       -3.39168        0.80386
