34
Indole_H13_Int1_Sub9.log	Energy: -806394.8311656
C         -0.52411       -0.30377        1.87540
C          0.18803       -0.95936        0.83992
N          0.28446        0.63791        2.43820
C          1.50310       -0.34566        0.81433
H         -0.06656       -1.93586        0.43039
C          1.50939        0.66204        1.80186
H         -0.02993        1.32491        3.10963
C          2.64221       -0.53599        0.02154
C          2.61503        1.48588        2.01263
C          3.75288        0.26980        0.23380
C          2.61867       -1.57499       -1.06310
C          3.73452        1.26872        1.22026
H          2.60303        2.27128        2.77064
H          4.64321        0.12532       -0.37913
H          4.62053        1.89090        1.36237
O         -2.33744       -1.27193       -0.46815
C         -3.22655       -1.61322        0.41991
O         -3.32698       -1.14078        1.54172
C         -4.16601       -2.68223       -0.08904
H         -4.77677       -3.06518        0.73696
H         -4.81975       -2.24578       -0.85901
H         -3.60196       -3.49600       -0.56521
H         -1.50269       -0.57274        2.28677
Pd        -1.20079        0.31667       -0.18779
O         -2.02736        1.83323       -1.46539
C         -1.07915        2.58223       -1.11376
O         -0.24283        2.12739       -0.26255
C         -0.90039        3.94580       -1.68938
H         -1.87601        4.38111       -1.93965
H         -0.34868        4.58770       -0.99135
H         -0.31513        3.85837       -2.61786
F          3.79210       -1.67979       -1.68634
F          1.69550       -1.28531       -1.98808
F          2.31094       -2.78322       -0.57502
