31
Indole_H13_Int1_Sub18.log	Energy: -883319.2560408
C          0.18679       -1.35463       -0.89468
C          0.14528       -1.52330        0.51372
N         -1.05917       -1.01879       -1.33241
C         -1.23053       -1.27704        0.91204
H          0.88655       -2.07557        1.09070
C         -1.92483       -0.93095       -0.26715
H         -1.28750       -0.71310       -2.26945
C         -1.90325       -1.29241        2.13772
C         -3.26987       -0.56618       -0.23394
C         -3.24952       -0.94851        2.15929
H         -1.37777       -1.56054        3.05619
C         -3.93023       -0.58203        0.98686
Cl        -4.06205       -0.10949       -1.70329
H         -3.79668       -0.95376        3.10411
H         -4.98481       -0.30398        1.02131
O          2.84958       -0.58136        0.55639
C          3.49724       -1.14876       -0.42094
O          3.06553       -1.32703       -1.54897
C          4.89189       -1.57149       -0.01886
H          5.32500       -2.21293       -0.79539
H          5.51468       -0.67255        0.10348
H          4.87556       -2.08999        0.94960
H          1.01381       -1.59057       -1.57189
Pd         1.14696        0.35749        0.20760
O          1.63342        2.45301        0.24846
C          0.40884        2.69234        0.08272
O         -0.38385        1.69782       -0.02943
C         -0.12351        4.08460        0.05037
H          0.62700        4.76613       -0.36943
H         -1.05777        4.12377       -0.52351
H         -0.33632        4.40212        1.08290
