40
Indole_H13_Int1_Sub21.log	Energy: -668949.8972384
C          0.40644       -1.28246       -1.01424
C          0.45205       -1.63057        0.36053
N         -0.87451       -0.95224       -1.33679
C         -0.90734       -1.50679        0.85422
H          1.24909       -2.21239        0.82247
C         -1.69193       -1.04016       -0.22196
H         -1.14082       -0.52929       -2.21474
C         -1.50096       -1.72616        2.10146
C         -3.05420       -0.73423       -0.10200
C         -2.85639       -1.46103        2.23389
H         -0.90971       -2.08997        2.94425
C         -3.61034       -0.96896        1.15431
C         -3.80483       -0.12742       -1.26645
H         -3.35072       -1.62748        3.19341
H         -4.67089       -0.76270        1.31120
O          3.10484       -0.56153        0.41091
C          3.73098       -0.98084       -0.65124
O          3.25959       -1.04186       -1.77577
C          5.15650       -1.38933       -0.35533
H          5.58093       -1.91285       -1.22013
H          5.74977       -0.48645       -0.14607
H          5.19981       -2.02204        0.54182
H          1.20067       -1.39432       -1.75842
Pd         1.34971        0.32674        0.23695
O          1.74278        2.43517        0.49540
C          0.50468        2.63039        0.39533
O         -0.24811        1.61812        0.19699
C         -0.09116        3.99093        0.53592
H          0.61491        4.75167        0.18000
H         -1.04322        4.05193       -0.00629
H         -0.28810        4.17763        1.60296
H         -3.43460       -0.62733       -2.18190
C         -5.30956       -0.35670       -1.21594
H         -5.78437        0.01864       -2.13477
H         -5.55501       -1.42445       -1.11501
H         -5.76981        0.18024       -0.37174
C         -3.47418        1.36548       -1.37923
H         -2.38890        1.54622       -1.37992
H         -3.91086        1.79926       -2.29250
H         -3.88462        1.90708       -0.51255
