37
Indole_H13_deriv1_Int1_Sub14.log	Energy: -644298.1894305
C         -0.05903       -0.92319        1.38366
C          0.24135       -1.44948        0.09989
N          1.05597       -0.35030        1.91065
C          1.65081       -1.18166       -0.11771
H         -0.34849       -2.21800       -0.39889
C          2.10698       -0.47088        1.01209
C          1.07693        0.48624        3.08133
C          2.51416       -1.46051       -1.18912
C          3.41464        0.00277        1.11125
C          3.82674       -1.00415       -1.07320
C          2.01804       -2.19311       -2.39662
C          4.26544       -0.28608        0.05054
H          3.75834        0.57445        1.97444
H          4.53009       -1.20141       -1.88609
H          5.30124        0.05938        0.08800
O         -2.43165       -0.85600       -0.70286
C         -3.22560       -1.22834        0.25948
O         -3.02471       -1.05790        1.45178
C         -4.47563       -1.90708       -0.25413
H         -5.02129       -2.36384        0.57997
H         -5.11423       -1.15618       -0.74323
H         -4.22259       -2.66149       -1.01181
H         -0.98310       -1.05141        1.95545
Pd        -0.89748        0.32465       -0.30652
O         -1.49913        2.30765       -0.93687
C         -0.35190        2.70382       -0.61017
O          0.46409        1.85095       -0.12220
C          0.07834        4.11846       -0.81209
H         -0.78540        4.79109       -0.73924
H          0.85346        4.39096       -0.08481
H          0.50500        4.21355       -1.82260
H          1.17000       -1.65981       -2.85604
H          1.65719       -3.20045       -2.13340
H          2.80606       -2.30194       -3.15392
H          1.12947        1.54881        2.79565
H          1.94141        0.23763        3.71401
H          0.15897        0.31816        3.65799
