34
Indole_H13_Int1_Sub22.log	Energy: -619651.2245380
C         -0.07785       -1.33673        0.99965
C          0.06361       -1.54184       -0.39704
N          1.13629       -0.99378        1.51406
C          1.46422       -1.31128       -0.70069
H         -0.63985       -2.10245       -1.01195
C          2.08483       -0.93224        0.50845
H          1.27167       -0.65138        2.45508
C          2.21637       -1.36806       -1.87872
C          3.43291       -0.56368        0.59254
C          3.56120       -1.03125       -1.81257
H          1.75240       -1.66187       -2.82246
C          4.14968       -0.63169       -0.60058
C          4.03568       -0.11506        1.88759
H          4.17522       -1.06736       -2.71494
H          5.20879       -0.36026       -0.58840
O         -2.62000       -0.58888       -0.66530
C         -3.34529       -1.13129        0.27028
O         -3.00845       -1.27914        1.43451
C         -4.70262       -1.56749       -0.23381
H         -5.20016       -2.18538        0.52302
H         -5.31181       -0.67360       -0.43577
H         -4.60598       -2.11576       -1.18099
H         -0.95011       -1.55576        1.62296
Pd        -0.94691        0.35290       -0.19925
O         -1.42199        2.45124       -0.32466
C         -0.21609        2.69253       -0.05855
O          0.56261        1.70257        0.14724
C          0.31365        4.08654       -0.01592
H         -0.46861        4.77789        0.32192
H          1.19650        4.14207        0.63309
H          0.61285        4.37831       -1.03451
H          3.93510       -0.88394        2.67187
H          3.54325        0.80070        2.25636
H          5.10557        0.10496        1.77391
