47
Indole_H14_Int1_Sub19.log	Energy: -742149.3941725
C          1.28709       -1.59999       -0.27523
C          0.10070       -1.82500        0.52272
C          0.84646       -0.96108       -1.46101
C         -0.99039       -1.29059       -0.19534
C         -0.10897       -2.40198        1.78016
H          1.39139       -0.82762       -2.39527
N         -0.51506       -0.82001       -1.40618
C         -2.29804       -1.25963        0.30910
C         -1.40215       -2.41807        2.28014
H          0.72711       -2.81683        2.34643
H         -1.05371       -0.26968       -2.05964
C         -2.46860       -1.85072        1.55931
C         -3.38708       -0.55244       -0.45650
H         -1.60163       -2.86630        3.25583
H         -3.46572       -1.87175        2.00339
O          3.52521        0.09566       -1.10182
C          4.42409       -0.64497       -0.51262
O          4.25177       -1.26471        0.52197
C          5.74010       -0.65532       -1.25776
H          6.20973        0.33583       -1.16975
H          6.40387       -1.41488       -0.82821
H          5.57751       -0.84419       -2.32802
H          2.25802       -2.07083       -0.11657
Pd         1.84713        0.49387       -0.13783
O          2.07544        2.47262        0.69096
C          0.88131        2.39656        1.08102
O          0.22391        1.34008        0.79860
C          0.24605        3.48362        1.88112
H          0.49151        3.32416        2.94249
H          0.64924        4.45925        1.58140
H         -0.84507        3.45516        1.76919
H         -3.22189       -0.75961       -1.53338
C         -3.28343        0.97054       -0.26301
H         -2.26059        1.31683       -0.48204
H         -3.44148        1.18666        0.80851
C         -4.31399        1.71590       -1.10245
H         -4.24023        2.79998       -0.91865
H         -4.08525        1.56912       -2.17432
C         -5.72874        1.22140       -0.82065
H         -6.45352        1.73451       -1.47302
H         -6.00271        1.48662        0.21655
C         -5.83533       -0.29038       -0.99224
H         -5.67852       -0.54926       -2.05528
H         -6.85053       -0.63508       -0.73844
C         -4.80513       -1.02486       -0.14075
H         -5.02337       -0.83285        0.92455
H         -4.88110       -2.11454       -0.28612
