40
Indole_H14_Int1_Sub21.log	Energy: -668949.3319151
C          0.51700       -1.59588       -0.06640
C         -0.77238       -1.55410        0.58962
C          0.30148       -1.12329       -1.38476
C         -1.69674       -1.03609       -0.34278
C         -1.19655       -1.88397        1.88156
H          0.96294       -1.20925       -2.24655
N         -1.02827       -0.82995       -1.53624
C         -3.03995       -0.78443       -0.02989
C         -2.53030       -1.67848        2.19975
H         -0.49029       -2.28296        2.61216
H         -1.41274       -0.34546       -2.33460
C         -3.42640       -1.13362        1.26224
C         -3.94218       -0.10688       -1.03680
H         -2.89602       -1.93105        3.19730
H         -4.46337       -0.97574        1.56540
O          3.03419       -0.31731       -0.83740
C          3.75722       -1.04005       -0.02583
O          3.38908       -1.45404        1.05917
C          5.13815       -1.31703       -0.57666
H          5.71819       -0.38203       -0.57627
H          5.64431       -2.06240        0.04806
H          5.07772       -1.66179       -1.61831
H          1.39509       -2.13417        0.29254
Pd         1.32235        0.41789       -0.17971
O          1.71012        2.46861        0.36267
C          0.47964        2.59129        0.59681
O         -0.27385        1.58231        0.39044
C         -0.09438        3.85913        1.13373
H          0.00308        3.84869        2.23036
H          0.46651        4.72082        0.75021
H         -1.15925        3.93612        0.88082
H         -3.68445       -0.52208       -2.03010
C         -5.42466       -0.37678       -0.81647
H         -6.01868        0.05924       -1.63358
H         -5.63936       -1.45500       -0.77413
H         -5.78077        0.07864        0.12083
C         -3.65148        1.39836       -1.06527
H         -2.57862        1.60799       -1.19099
H         -4.20932        1.89481       -1.87479
H         -3.95213        1.85659       -0.11015
