40
Indolizine_H13_Int1_Sub5.log	Energy: -668939.4473546
C          0.36023       -0.45551       -1.03709
C          1.06647        0.72620       -1.49496
N          1.34845       -1.22530       -0.34584
C          2.34300        0.70621       -0.98278
C          0.43403        1.77737       -2.36051
C          2.51621       -0.51137       -0.26577
C          1.17707       -2.44802        0.20489
H          3.10542        1.47769       -1.06897
C          3.58985       -1.06705        0.44992
C          2.22430       -3.02146        0.88511
H          0.17164       -2.86658        0.07979
C          3.44005       -2.31755        1.01432
H          4.51939       -0.50418        0.53939
H          2.09369       -4.00799        1.32988
H          4.26759       -2.76558        1.56887
O         -2.45548       -0.39941       -0.60313
C         -2.61352       -1.67366       -0.75257
O         -1.78796       -2.53614       -0.46834
C         -3.96494       -2.03951       -1.32640
H         -3.98473       -3.10148       -1.59872
H         -4.73908       -1.84088       -0.56996
H         -4.19609       -1.41159       -2.19807
H         -0.28295       -1.03714       -1.70318
Pd        -0.89137        0.29363        0.41117
O         -1.65177        1.24482        2.23172
C         -0.46072        1.52466        2.50545
O          0.45619        1.16762        1.68857
C         -0.08456        2.24422        3.76083
H          0.61707        3.05705        3.52780
H         -0.97825        2.63648        4.26016
H          0.43245        1.54373        4.43389
H         -0.61374        1.47123       -2.51771
C          0.42577        3.13582       -1.66086
H         -0.10141        3.88316       -2.27326
H         -0.07458        3.06805       -0.68378
H          1.45121        3.50042       -1.49038
C          1.12603        1.84502       -3.72259
H          1.11357        0.86904       -4.23034
H          0.62204        2.57533       -4.37404
H          2.17739        2.15600       -3.61653
