46
Indole_H13_deriv1_Int1_Sub12.log	Energy: -718249.3600466
C          0.03394        0.93286       -1.06332
C         -0.12567       -0.39417       -1.53208
N         -1.11610        1.37139       -0.48404
C         -1.49621       -0.74942       -1.23159
H          0.50522       -0.85106       -2.29434
C         -2.07103        0.35277       -0.55810
C         -1.23752        2.64677        0.25939
C         -2.21781       -1.93118       -1.46272
C         -3.38653        0.28988       -0.08684
C         -3.53246       -1.96776       -1.00507
C         -1.56946       -3.09226       -2.15024
C         -4.09966       -0.87787       -0.32938
H         -3.85400        1.11044        0.45392
H         -4.12964       -2.86871       -1.16612
H         -5.13131       -0.94886        0.02314
O          2.66992       -0.61197       -0.97784
C          3.32266        0.50038       -1.14386
O          2.94672        1.60361       -0.77392
C          4.64214        0.30067       -1.85427
H          5.06278        1.27178       -2.14079
H          5.33817       -0.21387       -1.17476
H          4.51353       -0.34218       -2.73597
H          0.88749        1.59120       -1.22521
Pd         1.09312       -0.61835        0.21968
O          1.81766       -1.23186        2.16094
C          0.62735       -1.18627        2.56534
O         -0.27636       -0.82931        1.73760
C          0.25645       -1.56477        3.96031
H          1.07906       -1.33011        4.64754
H         -0.66792       -1.05620        4.26156
H          0.08059       -2.65111        3.99365
H         -0.67408       -3.42179       -1.59844
H         -1.23789       -2.82329       -3.16608
H         -2.25571       -3.94592       -2.23206
C          0.05848        3.44140        0.11301
H         -0.03529        4.36976        0.69319
H          0.93472        2.89033        0.48383
H          0.24971        3.72071       -0.93370
C         -2.38423        3.46740       -0.33506
H         -3.35498        2.96242       -0.25467
H         -2.46068        4.42949        0.19205
H         -2.19609        3.67181       -1.39940
C         -1.46217        2.33942        1.74198
H         -1.52438        3.27874        2.31052
H         -2.38486        1.77068        1.91515
H         -0.62834        1.73943        2.13094
