34
Indolizine_H14_Int1_Sub14.log	Energy: -619631.8665091
C         -0.00357       -1.27326        1.59378
C         -1.26523       -0.92028        1.99035
C         -0.00968       -1.54484        0.16549
H         -1.64235       -0.56148        2.94417
N         -2.10334       -0.98001        0.88644
C         -1.38839       -1.38083       -0.22578
C          0.87847       -2.55900       -0.50485
C         -3.42177       -0.65758        0.81347
C         -2.06474       -1.56299       -1.43868
C         -4.09484       -0.81062       -0.36939
H         -3.88170       -0.29105        1.73130
C         -3.41331       -1.28283       -1.51313
H         -1.49880       -1.90500       -2.30603
H         -5.15526       -0.56012       -0.41192
H         -3.95218       -1.41306       -2.45324
O          2.39613       -0.08077       -0.77734
C          3.25786       -0.50669        0.09623
O          3.01553       -0.76087        1.26594
C          4.63593       -0.70046       -0.49895
H          4.59454       -1.48286       -1.27168
H          4.96780        0.22404       -0.99221
H          5.34443       -0.99069        0.28586
H          0.89331       -1.33212        2.20852
Pd         0.61072        0.49746       -0.16838
O          0.67161        2.64074       -0.44031
C         -0.52108        2.68277       -0.04961
O         -1.09787        1.58700        0.25755
C         -1.25180        3.97811        0.09349
H         -0.87112        4.70879       -0.63113
H         -2.33120        3.82576       -0.03332
H         -1.07320        4.37349        1.10547
H          0.41209       -3.55679       -0.45604
H          1.84101       -2.60771        0.01693
H          1.07253       -2.31189       -1.55712
