34
Indole_H14_Int1_Sub22.log	Energy: -619650.6452395
C         -0.00479       -1.52868        0.04581
C         -1.34695       -1.33156        0.55076
C         -0.05622       -1.21765       -1.33536
C         -2.13831       -0.89751       -0.53423
C         -1.91865       -1.46325        1.82120
H          0.68163       -1.44649       -2.10397
N         -1.34296       -0.87848       -1.66434
C         -3.49017       -0.55434       -0.40341
C         -3.26200       -1.15031        1.96721
H         -1.31550       -1.79499        2.66854
H         -1.61616       -0.48600       -2.55412
C         -4.02476       -0.70151        0.87448
C         -4.28215       -0.05473       -1.57188
H         -3.73906       -1.24394        2.94504
H         -5.07857       -0.45401        1.02923
O          2.65928       -0.51661       -0.65526
C          3.26323       -1.20781        0.27255
O          2.78369       -1.49943        1.35400
C          4.66056       -1.61936       -0.13420
H          5.30334       -0.72667       -0.15992
H          5.06139       -2.33858        0.58978
H          4.65913       -2.04832       -1.14588
H          0.79781       -2.06139        0.55897
Pd         0.96170        0.39625       -0.21704
O          1.47353        2.44855        0.17291
C          0.24252        2.68418        0.29656
O         -0.57342        1.72095        0.11541
C         -0.26109        4.03484        0.68004
H         -0.25756        4.10902        1.77853
H          0.40319        4.81289        0.28320
H         -1.29019        4.17545        0.32672
H         -4.28310       -0.77974       -2.40315
H         -3.86767        0.89175       -1.95884
H         -5.32804        0.13125       -1.29334
