46
Indole_H13_deriv1_Int1_Sub4.log	Energy: -718242.6845570
C         -0.30129       -0.85769        1.38909
C          0.32495       -1.22199        0.16369
N          0.61722       -0.35685        2.25952
C          1.72924       -0.78055        0.32483
C         -0.17112       -2.40176       -0.69182
C          1.84780       -0.27735        1.64480
H          0.37785        0.08896        3.13458
C          2.84183       -0.65213       -0.53856
C          3.02749        0.23984        2.17485
C          4.02860       -0.16002        0.00908
C          2.78381       -0.87670       -2.01930
C          4.13281        0.26180        1.33967
H          3.07048        0.61844        3.19781
H          4.89961       -0.06495       -0.64379
H          5.08614        0.64650        1.70907
O         -2.57782       -0.09791       -0.36733
C         -3.37809        0.05805        0.64982
O         -3.03143        0.44312        1.75509
C         -4.80398       -0.33192        0.33507
H         -5.45596       -0.06943        1.17644
H         -5.14072        0.16801       -0.58358
H         -4.85644       -1.41653        0.15423
H         -1.28752       -1.13361        1.75297
Pd        -0.76400        0.67830       -0.16329
O         -1.02857        2.64702       -0.96908
C          0.19229        2.86425       -0.74430
O          0.87821        1.93125       -0.21391
C          0.83854        4.15680       -1.11443
H          0.11310        4.97683       -1.04138
H          1.71115        4.34312       -0.47595
H          1.17976        4.09223       -2.15925
H          2.04048       -0.19817       -2.46782
H          2.50228       -1.89979       -2.30230
H          3.75727       -0.65832       -2.47810
C          0.89891       -3.50365       -0.62170
H          0.55268       -4.38887       -1.17759
H          1.86425       -3.19555       -1.04022
H          1.07496       -3.80605        0.42197
C         -1.45449       -3.00232       -0.10403
H         -2.27056       -2.27081       -0.10956
H         -1.76383       -3.86059       -0.71957
H         -1.29866       -3.36956        0.92185
C         -0.46847       -2.00644       -2.14270
H         -0.72339       -2.90370       -2.72849
H         -1.32764       -1.32116       -2.17865
H          0.38211       -1.51798       -2.63057
