47
Indolizine_H13_Int1_Sub11.log	Energy: -742138.1340924
C          0.78154        0.88433       -0.99867
C         -0.51915        0.48813       -1.48971
N          0.48658        1.78313        0.07424
C         -1.51042        0.97718       -0.67483
H         -0.65207       -0.14925       -2.36221
C         -0.86362        1.80212        0.30469
C          1.38090        2.48836        0.80298
C         -2.97497        0.67073       -0.67861
C         -1.34945        2.57578        1.37037
C          0.92341        3.27293        1.83452
H          2.42690        2.33086        0.51557
C         -0.45626        3.31122        2.12402
H         -2.41978        2.58892        1.57744
H          1.63947        3.84425        2.42537
H         -0.81876        3.92403        2.95222
O          3.05225       -0.84424       -1.23056
C          3.91448        0.11271       -1.13178
O          3.76119        1.15543       -0.50210
C          5.19904       -0.16772       -1.88091
H          5.80722        0.74279       -1.94068
H          5.76108       -0.94637       -1.34327
H          4.98389       -0.55830       -2.88503
H          1.59566        1.20861       -1.65118
Pd         1.42192       -0.84508       -0.09236
O          1.52613       -2.59558        1.23928
C          0.41941       -2.22933        1.69687
O         -0.11902       -1.16806        1.22735
C         -0.30132       -3.01458        2.74581
H         -1.02669       -3.67995        2.25236
H          0.40644       -3.63018        3.31419
H         -0.85782       -2.34103        3.41056
H         -3.51957        1.61488       -0.47974
C         -3.33464       -0.31513        0.44669
H         -2.99993        0.08024        1.41857
H         -2.74953       -1.23747        0.29214
C         -4.82666       -0.62268        0.47037
H         -5.04732       -1.35572        1.26312
H         -5.38432        0.29479        0.73433
C         -5.31620       -1.13383       -0.88001
H         -6.40382       -1.30910       -0.85532
H         -4.84764       -2.11303       -1.08675
C         -4.95867       -0.16397       -2.00103
H         -5.51595        0.77976       -1.85862
H         -5.27796       -0.56653       -2.97566
C         -3.46431        0.13554       -2.02397
H         -2.91575       -0.79484       -2.25646
H         -3.22137        0.85294       -2.82464
