34
Indole_H13_Int1_Sub14.log	Energy: -619651.6862871
C         -0.07853       -1.08101        1.41023
C          0.29869       -1.43642        0.08943
N          1.01360       -0.59133        2.05750
C          1.71430       -1.13507       -0.01986
H         -0.26031       -2.12616       -0.54230
C          2.11157       -0.58183        1.21583
H          0.98105       -0.14787        2.96514
C          2.63078       -1.26375       -1.07678
C          3.41169       -0.13357        1.44447
C          3.93244       -0.82768       -0.83624
C          2.19791       -1.82445       -2.39543
C          4.31331       -0.27347        0.39690
H          3.70884        0.30648        2.39804
H          4.67525       -0.91119       -1.63347
H          5.34485        0.05983        0.53259
O         -2.36120       -0.77432       -0.71510
C         -3.19116       -1.24975        0.16835
O         -3.03777       -1.21320        1.37914
C         -4.41807       -1.86531       -0.46616
H         -4.99280       -2.41405        0.28926
H         -5.04082       -1.06311       -0.88990
H         -4.13384       -2.52816       -1.29502
H         -1.02895       -1.28641        1.91234
Pd        -0.84989        0.36612       -0.14649
O         -1.43409        2.38144       -0.64646
C         -0.30133        2.75638       -0.24696
O          0.49688        1.87159        0.20979
C          0.12767        4.18283       -0.32999
H         -0.73938        4.84527       -0.21409
H          0.89267        4.39788        0.42646
H          0.56421        4.35982       -1.32512
H          1.37219       -1.23070       -2.82012
H          1.82754       -2.85684       -2.28937
H          3.02307       -1.83257       -3.12021
