31
Indole_H13_Int1_Sub2.log	Energy: -883312.7125917
C         -0.10572       -1.02159        1.26059
C          0.22944       -1.38580       -0.07540
N          1.05255       -0.68771        1.90734
C          1.67091       -1.24851       -0.19599
Cl        -0.65416       -2.46955       -1.08309
C          2.13208       -0.77499        1.05026
H          1.07329       -0.23735        2.81233
C          2.56665       -1.48087       -1.24091
C          3.47896       -0.48566        1.26642
C          3.91143       -1.21063       -1.02467
H          2.20567       -1.86425       -2.19736
C          4.35626       -0.71400        0.21309
H          3.83165       -0.09955        2.22459
H          4.63492       -1.38240       -1.82414
H          5.41927       -0.50408        0.35223
O         -2.44593       -0.09534       -0.52237
C         -3.24927       -0.53336        0.39960
O         -2.97395       -0.67088        1.58273
C         -4.60528       -0.90523       -0.15510
H         -5.29787       -1.11957        0.66727
H         -4.99446       -0.09854       -0.79110
H         -4.49635       -1.79868       -0.78843
H         -1.06435       -1.16101        1.77463
Pd        -0.65238        0.61399       -0.11625
O         -0.85423        2.70394       -0.55977
C          0.36621        2.84107       -0.28054
O          1.01205        1.80860        0.09879
C          1.05760        4.15501       -0.41723
H          0.36149        4.97302       -0.19246
H          1.93833        4.19472        0.23563
H          1.39128        4.26736       -1.46041
