31
Indole_H14_Int1_Sub18.log	Energy: -883318.7000110
C          0.20150       -1.52343        0.14037
C         -1.10934       -1.31936        0.72437
C          0.06302       -1.24276       -1.24144
C         -1.95823       -0.91389       -0.32821
C         -1.60865       -1.41637        2.02730
H          0.75495       -1.48072       -2.04879
N         -1.24219       -0.91396       -1.50053
C         -3.29027       -0.57515       -0.09217
C         -2.94211       -1.09811        2.24979
H         -0.95747       -1.72623        2.84659
H         -1.59820       -0.55584       -2.37684
C         -3.77864       -0.67610        1.20253
Cl        -4.27654       -0.04271       -1.41200
H         -3.35692       -1.16647        3.25740
H         -4.82171       -0.41984        1.39527
O          2.80951       -0.50418       -0.75797
C          3.47502       -1.19955        0.12382
O          3.06456       -1.50576        1.22963
C          4.84772       -1.59459       -0.37168
H          5.48219       -0.69687       -0.41956
H          5.29509       -2.32271        0.31512
H          4.78934       -2.00613       -1.38882
H          1.03747       -2.04233        0.61407
Pd         1.13894        0.39767       -0.20910
O          1.65635        2.45652        0.11371
C          0.43556        2.68244        0.32748
O         -0.37875        1.70550        0.22636
C         -0.05525        4.03329        0.72320
H          0.01719        4.12337        1.81817
H          0.57437        4.81128        0.27353
H         -1.10627        4.15846        0.43441
