47
Indole_H14_Int1_Sub3.log	Energy: -742153.4720993
C         -0.22884       -0.50408        1.27629
C         -1.45669       -1.27984        1.27961
C          0.57395       -1.02285        0.22010
C         -1.36858       -2.19043        0.20523
C         -2.60843       -1.24453        2.06916
C          2.03917       -0.84146       -0.02014
N         -0.12967       -2.02495       -0.38873
C         -2.40950       -3.05825       -0.11592
C         -3.64504       -2.12049        1.76711
H         -2.68751       -0.53388        2.89438
H          0.14803       -2.45329       -1.26100
C         -3.54509       -3.01207        0.68664
H         -2.33974       -3.74761       -0.95968
H         -4.55442       -2.11259        2.37170
H         -4.37875       -3.68364        0.46860
O          1.01359        2.00257        0.66622
C          0.70346        2.59260        1.78927
O         -0.34664        2.43829        2.38620
C          1.80169        3.50437        2.28886
H          1.92455        4.34309        1.58772
H          1.54343        3.88832        3.28275
H          2.76031        2.96709        2.32310
H          0.14642        0.06310        2.12673
Pd        -0.43543        0.99236       -0.23204
O         -1.22346        2.31660       -1.73825
C         -1.98360        1.38041       -2.09877
O         -1.88289        0.25957       -1.49905
C         -3.00694        1.56925       -3.16831
H         -3.94441        1.90386       -2.69777
H         -2.68021        2.34221       -3.87496
H         -3.20240        0.62019       -3.68337
H          2.30454        0.11682        0.45370
C          2.39806       -0.74353       -1.50521
H          1.83104        0.08071       -1.96703
H          2.09515       -1.67202       -2.02677
C          3.89680       -0.54261       -1.69448
H          4.13916       -0.49825       -2.76809
H          4.17865        0.43757       -1.27123
C          4.70080       -1.64202       -1.00890
H          5.78053       -1.45558       -1.12379
H          4.49819       -2.60657       -1.50962
C          4.33749       -1.75903        0.46735
H          4.64665       -0.83771        0.99247
H          4.89284       -2.58601        0.93810
C          2.83936       -1.96123        0.66306
H          2.53522       -2.93464        0.23765
H          2.58713       -1.99645        1.73476
