31
Indole_H14_Int1_Sub2.log	Energy: -883313.3335312
C         -0.12833       -1.41322        0.23147
C         -1.50291       -1.23520        0.66369
C         -0.15757       -1.26310       -1.17937
C         -2.27599       -0.96173       -0.48563
C         -2.10788       -1.25365        1.92313
Cl         0.99412       -1.76864       -2.33748
N         -1.44050       -1.02467       -1.58763
C         -3.63841       -0.68238       -0.41094
C         -3.47118       -0.99747        2.00345
H         -1.51144       -1.45381        2.81535
H         -1.68141       -0.73088       -2.52495
C         -4.22234       -0.71264        0.85089
H         -4.22471       -0.45260       -1.30247
H         -3.96760       -1.00836        2.97595
H         -5.29101       -0.50755        0.94688
O          2.47561       -0.22484        0.05351
C          2.85250       -0.66181        1.22307
O          2.12071       -0.78761        2.19005
C          4.32345       -1.00855        1.26057
H          4.91450       -0.08672        1.15530
H          4.56600       -1.49625        2.21204
H          4.58431       -1.66007        0.41479
H          0.65015       -1.91222        0.80548
Pd         0.66639        0.54588       -0.09606
O          0.97018        2.66468       -0.04975
C         -0.26899        2.80927       -0.22383
O         -0.97943        1.75959       -0.36329
C         -0.90511        4.15795       -0.23031
H         -1.14705        4.43374        0.80779
H         -0.20578        4.90402       -0.62821
H         -1.83648        4.14042       -0.80985
