36
Indolizine_H13_Int1_Sub31.log	Energy: -654348.5519254
C         -0.26937       -1.05642       -1.05756
C          0.31165       -0.46395       -2.23761
N          0.83877       -1.27854       -0.18440
C          1.64291       -0.22064       -2.01721
H         -0.25626       -0.23685       -3.13828
C          1.96175       -0.72526       -0.72102
C          0.79736       -1.90786        1.01822
H          2.33797        0.27480       -2.69137
C          3.16721       -0.72816        0.03145
C          1.96219       -1.97968        1.73838
H         -0.19045       -2.26588        1.32051
C          3.14533       -1.38299        1.26136
N          4.27467       -0.12433       -0.49655
H          1.95575       -2.48281        2.70573
H          4.04716       -1.42442        1.87246
O         -2.97468       -0.42335       -0.38657
C         -3.15264       -1.49673        0.31326
O         -2.28621       -2.09132        0.94575
C         -4.58653       -1.98081        0.29590
H         -4.65190       -2.98060        0.74156
H         -5.20627       -1.28039        0.87587
H         -4.97938       -1.98716       -0.73030
H         -1.00542       -1.86249       -1.08109
Pd        -1.25631        0.56462       -0.24988
O         -1.68518        2.49929        0.68392
C         -0.46306        2.75345        0.57015
O          0.30038        1.87493        0.04198
C          0.11169        4.06360        1.00615
H          0.18737        4.72637        0.13028
H         -0.54217        4.53725        1.74845
H          1.12238        3.91953        1.41016
H          4.09457        0.57629       -1.20196
C          5.49352        0.01227        0.24783
H          6.23593        0.53523       -0.36872
H          5.91257       -0.97571        0.49965
H          5.36771        0.57728        1.19178
