34
Indolizine_H13_Int1_Sub14.log	Energy: -619638.7823750
C          0.13743       -0.99333       -1.00199
C          0.95142       -0.37548       -2.02439
N          1.07938       -1.36421        0.00909
C          2.24777       -0.24452       -1.59480
H          0.55185       -0.03125       -2.97785
C          2.31831       -0.87506       -0.30916
C          0.81496       -2.04556        1.14652
C          3.38648        0.45071       -2.25500
C          3.36846       -1.06005        0.60272
C          1.83644       -2.26547        2.03979
H         -0.23555       -2.33409        1.26989
C          3.12436       -1.75947        1.76819
H          4.35440       -0.65537        0.37197
H          1.62929       -2.81534        2.95796
H          3.93116       -1.91874        2.48693
O         -2.60935       -0.28333       -0.62093
C         -2.92015       -1.39009       -0.03197
O         -2.16762       -2.07230        0.65797
C         -4.35925       -1.79885       -0.25934
H         -4.51791       -2.82804        0.08428
H         -5.01501       -1.12021        0.30689
H         -4.62693       -1.69761       -1.32013
H         -0.61840       -1.75231       -1.21836
Pd        -0.87973        0.61126       -0.21747
O         -1.32948        2.52167        0.76515
C         -0.09199        2.71287        0.81296
O          0.68685        1.81749        0.33642
C          0.49062        3.96755        1.38095
H          0.71567        4.65918        0.55445
H         -0.22745        4.44891        2.05583
H          1.43151        3.74736        1.90229
H          4.27342       -0.19836       -2.33216
H          3.68053        1.34946       -1.68858
H          3.11281        0.77035       -3.26933
