40
Indole_H14_Int1_Sub5.log	Energy: -668952.9941169
C         -0.16025       -1.13499        0.77460
C         -1.54983       -0.86126        1.09622
C         -0.12389       -1.47230       -0.60870
C         -2.28097       -0.99277       -0.10348
C         -2.20349       -0.48625        2.27239
C          0.95681       -2.17553       -1.37843
N         -1.39943       -1.38579       -1.09519
C         -3.64946       -0.74149       -0.16659
C         -3.57306       -0.25232        2.22239
H         -1.64092       -0.37068        3.20105
H         -1.62654       -1.41942       -2.07947
C         -4.28304       -0.37610        1.01694
H         -4.20437       -0.82822       -1.10283
H         -4.10619        0.03977        3.12959
H         -5.35744       -0.17839        1.00651
O          2.44308       -0.04473        0.33641
C          2.78805        0.03000        1.59409
O          2.03395        0.33238        2.50112
C          4.24577       -0.30289        1.81856
H          4.87026        0.47496        1.35458
H          4.45521       -0.35086        2.89365
H          4.50176       -1.25615        1.33458
H          0.60173       -1.40406        1.50443
Pd         0.63701        0.63344       -0.11487
O          0.92382        2.65496       -0.80181
C         -0.31168        2.70249       -1.03746
O         -1.00502        1.65397       -0.82257
C         -0.97081        3.95240       -1.51688
H         -1.30300        4.52896       -0.63970
H         -0.25828        4.56492       -2.08316
H         -1.85372        3.71189       -2.12255
H          1.89574       -1.92645       -0.86207
C          0.73453       -3.68831       -1.30499
H          1.55533       -4.21865       -1.81107
H          0.69446       -4.03606       -0.26242
H         -0.20916       -3.97781       -1.79387
C          1.05596       -1.68136       -2.81805
H          1.21439       -0.59319       -2.85449
H          1.89978       -2.16619       -3.33000
H          0.15004       -1.92071       -3.40103
