47
Indolizine_H13_Int1_Sub27.log	Energy: -742137.3345010
C         -1.25096       -1.07092       -1.09960
C         -0.52042       -0.53131       -2.22065
N         -0.23581       -1.50227       -0.19151
C          0.81765       -0.49966       -1.92511
H         -0.99807       -0.17868       -3.13348
C          0.99337       -1.09970       -0.64098
C         -0.43158       -2.15487        0.97846
H          1.61498       -0.06785       -2.52423
C          2.13179       -1.30321        0.17105
C          0.66185       -2.42806        1.75972
H         -1.47858       -2.36785        1.21683
C          1.94095       -1.98748        1.35922
C          3.44185       -0.70187       -0.26151
H          0.52383       -2.95973        2.70140
H          2.79386       -2.18093        2.01213
O         -3.82668        0.00255       -0.44414
C         -4.20122       -1.05492        0.19892
O         -3.46288       -1.81920        0.81244
C         -5.69591       -1.28313        0.14140
H         -5.93956       -2.28121        0.52468
H         -6.19602       -0.52259        0.75994
H         -6.06646       -1.16023       -0.88564
H         -2.10663       -1.74232       -1.19460
Pd        -1.96491        0.66728       -0.24834
O         -2.04463        2.61823        0.76319
C         -0.79575        2.64370        0.67252
O         -0.20181        1.65816        0.11327
C          0.01352        3.79687        1.17325
H          0.33101        4.40827        0.31473
H         -0.58312        4.41672        1.85294
H          0.91955        3.42960        1.67430
H          3.50370       -0.80884       -1.36049
C          4.68240       -1.37411        0.32297
H          4.67296       -2.45293        0.09667
H          4.66772       -1.28065        1.42355
C          5.95659       -0.72236       -0.20474
H          6.84044       -1.20992        0.23663
H          6.02343       -0.88984       -1.29495
C          5.97829        0.77637        0.07800
H          6.88642        1.23315       -0.34705
H          6.03289        0.93622        1.17017
C          4.73030        1.46516       -0.46389
H          4.73916        1.42130       -1.56829
H          4.73402        2.53466       -0.19880
C          3.45759        0.80503        0.05131
H          3.38983        0.92566        1.14767
H          2.55736        1.28805       -0.35984
