43
Indole_H13_Int1_Sub20.log	Energy: -693597.7045102
C          0.48307       -1.34314       -0.82610
C          0.58916       -1.56397        0.56939
N         -0.80406       -1.00910       -1.11492
C         -0.74017       -1.35699        1.11188
H          1.39283       -2.12272        1.04792
C         -1.57456       -0.96568        0.03883
H         -1.09751       -0.66276       -2.01621
C         -1.25313       -1.45110        2.40818
C         -2.92406       -0.60548        0.21481
C         -2.58838       -1.13554        2.59859
H         -0.61440       -1.75617        3.23950
C         -3.39186       -0.71636        1.52545
C         -3.79448       -0.10649       -0.93873
H         -3.02836       -1.19960        3.59607
H         -4.43034       -0.46285        1.73833
O          3.26551       -0.56838        0.38142
C          3.82475       -1.09082       -0.67213
O          3.29257       -1.23380       -1.76164
C          5.25530       -1.50930       -0.41692
H          5.62144       -2.11437       -1.25474
H          5.87777       -0.60739       -0.31668
H          5.33369       -2.06512        0.52753
H          1.23403       -1.54291       -1.59632
Pd         1.52315        0.34861        0.22299
O          1.97499        2.45994        0.26403
C          0.73731        2.67716        0.21363
O         -0.04679        1.67147        0.15375
C          0.17700        4.05932        0.25547
H          0.91630        4.78102       -0.11289
H         -0.75002        4.11158       -0.33009
H         -0.06506        4.30825        1.30025
C         -5.21777        0.21336       -0.47756
H         -5.81016        0.56989       -1.33367
H         -5.72490       -0.67354       -0.06862
H         -5.23116        1.00407        0.28736
C         -3.19046        1.18834       -1.50784
H         -2.15553        1.07104       -1.85833
H         -3.79639        1.55294       -2.35223
H         -3.16453        1.96981       -0.73424
C         -3.89691       -1.18664       -2.02784
H         -4.51574       -0.82669       -2.86467
H         -2.92288       -1.48328       -2.44210
H         -4.36447       -2.09755       -1.62468
