43
Indole_H14_Int1_Sub20.log	Energy: -693597.2212401
C          0.63999       -1.57139        0.10129
C         -0.61433       -1.44645        0.81049
C          0.37189       -1.19188       -1.23494
C         -1.57883       -0.97161       -0.10920
C         -0.95906       -1.67731        2.14538
H          0.98665       -1.35631       -2.11955
N         -0.95617       -0.87673       -1.34410
C         -2.90019       -0.66167        0.26715
C         -2.26368       -1.41611        2.52742
H         -0.21392       -2.04180        2.85504
H         -1.36092       -0.44161       -2.15933
C         -3.19932       -0.91409        1.60660
C         -3.91025       -0.06360       -0.71201
H         -2.57615       -1.58623        3.55987
H         -4.20636       -0.70816        1.96946
O          3.14303       -0.42017       -0.89024
C          3.89009       -1.11043       -0.07244
O          3.57071       -1.44549        1.05455
C          5.23254       -1.45982       -0.67501
H          5.83420       -0.54301       -0.76529
H          5.75322       -2.17783       -0.03049
H          5.10807       -1.86808       -1.68762
H          1.52124       -2.10424        0.46086
Pd         1.48729        0.40571       -0.19651
O          1.95767        2.47371        0.18137
C          0.74530        2.64908        0.47149
O         -0.04473        1.65201        0.37737
C          0.23463        3.96708        0.94851
H          0.29326        3.98695        2.04777
H          0.85516        4.78102        0.55373
H         -0.81635        4.09606        0.65979
C         -5.26821        0.17694       -0.04970
H         -5.96527        0.60670       -0.78486
H         -5.71284       -0.75799        0.32334
H         -5.19339        0.88422        0.78970
C         -3.39035        1.29646       -1.20752
H         -2.41258        1.23457       -1.70603
H         -4.10349        1.74294       -1.91828
H         -3.26135        1.98775       -0.36182
C         -4.13757       -1.02404       -1.89046
H         -4.85285       -0.58856       -2.60577
H         -3.21794       -1.25962       -2.44490
H         -4.55013       -1.97996       -1.53426
