31
Indolizine_H13_Int1_Sub2.log	Energy: -883305.3892236
C          0.27844       -0.95874       -0.78125
C          0.91688       -0.34327       -1.93138
N          1.37738       -1.18213        0.11289
C          2.23650       -0.08424       -1.67875
Cl         0.07841        0.00727       -3.36990
C          2.52044       -0.61265       -0.38527
C          1.31619       -1.81035        1.30854
H          2.94297        0.43730       -2.31871
C          3.68568       -0.65141        0.39518
C          2.45416       -1.88595        2.07624
H          0.31952       -2.18601        1.57187
C          3.64695       -1.29172        1.61811
H          4.59600       -0.18426        0.01871
H          2.41104       -2.39393        3.03972
H          4.54643       -1.33659        2.23599
O         -2.47084       -0.56548       -0.05214
C         -2.56148       -1.69151        0.57205
O         -1.64352       -2.26848        1.14989
C         -3.95698       -2.27451        0.54291
H         -3.94545       -3.30115        0.92778
H         -4.61551       -1.65493        1.17010
H         -4.36303       -2.24719       -0.47773
H         -0.39639       -1.81112       -0.89668
Pd        -0.82898        0.54514        0.07720
O         -1.39561        2.42239        1.03214
C         -0.20202        2.78107        0.89291
O          0.62156        1.96618        0.35116
C          0.26783        4.13656        1.31086
H          0.26195        4.79844        0.43109
H         -0.40509        4.55515        2.06900
H          1.29799        4.08281        1.68654
