34
Indole_H13_deriv1_Int1_Sub2.log	Energy: -907964.9511723
C         -0.21392       -0.81711        1.46096
C          0.22156       -1.28275        0.18646
N          0.87700       -0.35302        2.13372
C          1.66089       -1.05454        0.12352
Cl        -0.56412       -2.55147       -0.68708
C          2.01072       -0.44696        1.34922
H          0.81999        0.17482        2.99420
C          2.63048       -1.26863       -0.87308
C          3.31140       -0.03368        1.63054
C          3.93170       -0.86795       -0.57189
C          2.28696       -1.87067       -2.20040
C          4.26612       -0.26537        0.65054
H          3.56476        0.45164        2.57463
H          4.71296       -1.01807       -1.32090
H          5.30080        0.03643        0.82883
O         -2.49185       -0.23295       -0.55674
C         -3.32358       -0.62500        0.36060
O         -3.11472       -0.62062        1.56510
C         -4.61733       -1.14311       -0.22477
H         -5.35318       -1.29378        0.57389
H         -5.00264       -0.44882       -0.98369
H         -4.41871       -2.10217       -0.72697
H         -1.19362       -0.97137        1.92825
Pd        -0.77153        0.62773       -0.12583
O         -1.06785        2.65050       -0.79244
C          0.12284        2.89090       -0.46088
O          0.80320        1.94377        0.05597
C          0.74568        4.22630       -0.69065
H         -0.01123        5.01607       -0.60439
H          1.57064        4.39065        0.01368
H          1.15169        4.25139       -1.71375
H          1.45842       -1.32677       -2.67962
H          1.95644       -2.91492       -2.09343
H          3.15380       -1.84862       -2.87448
