44
Isoquinoline_H12_Int1_Sub4.log	Energy: -717479.1157301
C          0.06441       -1.06388        0.77614
C         -1.34382       -0.99648        1.08046
C          0.51584       -1.57197       -0.46147
C         -2.29174       -1.41100        0.11564
C         -1.81877       -0.52319        2.32524
C         -0.48639       -1.92756       -1.43321
C          1.95562       -2.03766       -0.71741
C         -1.81900       -1.86912       -1.15356
C         -3.65389       -1.33635        0.46453
H         -1.09491       -0.15743        3.06199
N         -3.09670       -0.46868        2.63685
H         -0.16342       -2.27429       -2.41568
H         -2.55039       -2.16375       -1.90979
H         -4.42427       -1.63985       -0.24797
C         -3.99421       -0.87077        1.71982
H         -5.04682       -0.80731        2.01709
O          2.01502        1.12893        0.63447
C          1.86486        1.47578        1.88545
O          0.80932        1.42714        2.49155
C          3.15970        1.91678        2.52553
H          3.84719        1.05972        2.59273
H          3.64987        2.68101        1.90667
H          2.96095        2.30652        3.53072
H          0.75630       -0.94410        1.60915
Pd         0.34391        0.78218       -0.35810
O          0.01842        2.66371       -1.26641
C         -1.03079        2.20510       -1.79795
O         -1.30887        0.98124       -1.58448
C         -1.93489        3.06357       -2.61254
H         -2.45955        2.45977       -3.36364
H         -2.68529        3.51203       -1.94314
H         -1.36528        3.87355       -3.08495
C          2.84701       -1.88560        0.51497
H          3.85573       -2.25645        0.27910
H          2.93161       -0.83442        0.81507
H          2.46776       -2.47662        1.36288
C          1.90398       -3.53498       -1.07338
H          1.37971       -3.72915       -2.01978
H          2.93011       -3.91908       -1.17885
H          1.40440       -4.11463       -0.28197
C          2.56400       -1.25261       -1.88621
H          3.54854       -1.67017       -2.14832
H          1.93044       -1.29800       -2.78529
H          2.70171       -0.19522       -1.61494
