45
Napthalene_H7_Int1_Sub28.log	Energy: -707418.3411086
C          0.51288       -1.32413       -0.83843
C         -0.49454       -1.74312        0.09569
C          0.20200       -0.34306       -1.78990
C         -1.79323       -1.15014        0.06981
C         -0.16584       -2.73752        1.03972
C         -1.10594        0.22756       -1.81254
H          0.89295       -0.14289       -2.61191
C         -2.09073       -0.11917       -0.91970
C         -2.71604       -1.62419        1.03342
C         -1.09675       -3.16986        1.95996
H          0.85106       -3.13721        1.03266
H         -1.29692        0.98386       -2.57043
C         -3.44438        0.60416       -0.97630
H         -3.72141       -1.21615        1.07424
C         -2.38102       -2.60442        1.94827
H         -0.83725       -3.93748        2.69213
H         -3.12870       -2.93616        2.67256
O          2.98551        0.20012       -1.10232
C          3.74267       -0.75285       -0.62953
O          3.41559       -1.52811        0.25240
C          5.09966       -0.79666       -1.29311
H          5.68722        0.07240       -0.96101
H          5.62087       -1.71891       -1.01038
H          5.00084       -0.72567       -2.38506
H          1.42907       -1.91329       -0.90042
Pd         1.32265        0.57153       -0.10912
O          1.84627        2.09547        1.28293
C          0.64483        2.11664        1.66774
O         -0.17764        1.33834        1.08524
C          0.19953        2.99184        2.78917
H         -0.86966        3.22026        2.69693
H          0.35952        2.45312        3.73597
H          0.79884        3.91072        2.81300
C         -4.58192       -0.38238       -1.29616
H         -5.54238        0.15537       -1.32858
H         -4.41914       -0.84086       -2.28355
H         -4.68086       -1.19925       -0.57194
C         -3.68649        1.36023        0.34365
H         -2.86012        2.06243        0.52676
H         -4.62586        1.93119        0.27762
H         -3.75061        0.70705        1.22152
C         -3.47711        1.66463       -2.08398
H         -4.46180        2.15507       -2.08036
H         -2.71847        2.44634       -1.92943
H         -3.33242        1.22773       -3.08350
