36
Napthalene_H7_Int1_Sub6.log	Energy: -633474.8199458
C          0.20699       -1.33883        0.67372
C          1.45594       -1.27947       -0.04622
C          0.05205       -0.70109        1.92603
C          2.53933       -0.55102        0.51269
C          1.60739       -1.91397       -1.29479
C          1.16746        0.03995        2.44651
C         -1.10071       -1.01440        2.83321
C          2.35269        0.09920        1.77344
C          3.75835       -0.48920       -0.19421
C          2.81320       -1.83895       -1.96563
H          0.74646       -2.42908       -1.72676
H          1.05235        0.54608        3.40759
H          3.19007        0.66239        2.19340
H          4.59174        0.07410        0.23314
C          3.89366       -1.12638       -1.41225
H          2.92667       -2.32752       -2.93606
H          4.84098       -1.07207       -1.95370
O         -2.48433       -0.50036        0.14789
C         -2.66158       -1.27493       -0.88828
O         -1.80044       -1.53436       -1.71141
C         -4.06491       -1.82827       -0.97093
H         -4.76148       -1.00852       -1.20175
H         -4.11862       -2.58836       -1.75923
H         -4.37133       -2.25269       -0.00453
H         -0.52357       -2.08127        0.34862
Pd        -0.78416        0.51156        0.15760
O         -1.28042        2.34814       -0.79213
C         -0.08800        2.72462       -0.62226
O          0.70002        1.93348       -0.01083
C          0.40182        4.03054       -1.14745
H          1.24582        4.39156       -0.54655
H          0.74955        3.88200       -2.18150
H         -0.41474        4.76334       -1.16151
H         -1.37793       -0.13734        3.43575
H         -0.80545       -1.81683        3.52981
H         -1.98004       -1.33960        2.26410
