33
Napthalene_H7_Int1_Sub26.log	Energy: -897143.8668261
C          0.12069       -1.38803       -0.65101
C         -1.01916       -1.52341        0.21675
C          0.03526       -0.58503       -1.80317
C         -2.22660       -0.83481       -0.08788
C         -0.94472       -2.32176        1.37521
C         -1.18584        0.08633       -2.11770
H          0.83354       -0.62096       -2.54783
C         -2.26140       -0.03218       -1.28297
C         -3.32620       -0.97146        0.78250
C         -2.03659       -2.44061        2.21204
H         -0.00052       -2.82264        1.60153
H         -1.25794        0.69819       -3.01707
Cl        -3.71489        0.81466       -1.67860
H         -4.25078       -0.44079        0.55239
C         -3.23085       -1.76197        1.91136
H         -1.97158       -3.05707        3.11128
H         -4.09124       -1.85700        2.57765
O          2.77562       -0.19331       -0.88882
C          3.36120       -1.11092       -0.16714
O          2.85005       -1.67445        0.78562
C          4.76733       -1.40630       -0.63319
H          5.41374       -0.55364       -0.37636
H          5.14070       -2.30943       -0.13616
H          4.79902       -1.52235       -1.72524
H          0.96332       -2.06310       -0.49236
Pd         1.07552        0.51542       -0.18189
O          1.61913        2.21776        0.97258
C          0.39289        2.41727        1.19570
O         -0.44151        1.61486        0.66364
C         -0.07379        3.52453        2.07586
H         -1.09210        3.82648        1.80095
H         -0.08650        3.16197        3.11540
H          0.61981        4.37268        2.01671
