49
Napthalene_H7_Int1_Sub27.log	Energy: -755973.7461290
C         -1.16160        1.20072       -1.02277
C         -0.32669        1.97449       -0.14385
C         -0.58734        0.19190       -1.81507
C          1.06624        1.69211       -0.06524
C         -0.89346        2.99830        0.64146
C          0.81560       -0.06266       -1.73568
H         -1.17859       -0.27388       -2.60675
C          1.63168        0.63346       -0.88081
C          1.84408        2.47619        0.81626
C         -0.10465        3.74418        1.49366
H         -1.97012        3.17095        0.57140
H          1.22759       -0.85086       -2.36579
C          3.08921        0.27604       -0.73219
H          2.91493        2.29214        0.90580
C          1.27271        3.47898        1.57644
H         -0.54819        4.53406        2.10380
H          1.89952        4.06860        2.24959
O         -3.19992       -0.89045       -1.11717
C         -4.18539       -0.08752       -0.81854
O         -4.10298        0.86112       -0.05758
C         -5.47054       -0.46297       -1.51937
H         -5.85884       -1.39345       -1.07872
H         -6.20939        0.33713       -1.39260
H         -5.28882       -0.65800       -2.58529
H         -2.18258        1.54640       -1.19331
Pd        -1.56239       -0.70268       -0.03341
O         -1.78480       -2.10467        1.55971
C         -0.64012       -1.77093        1.97092
O         -0.00101       -0.89640        1.30092
C         -0.05610       -2.34560        3.21623
H          1.03945       -2.35785        3.15274
H         -0.34533       -1.70627        4.06466
H         -0.45282       -3.35322        3.39207
H          3.65225        1.21754       -0.60095
C          3.71019       -0.42868       -1.93849
H          3.54997        0.16935       -2.85026
H          3.20726       -1.39789       -2.10204
C          5.19643       -0.68795       -1.71605
H          5.62587       -1.19801       -2.59319
H          5.72577        0.27838       -1.63042
C          5.43502       -1.50890       -0.45341
H          6.51455       -1.65407       -0.28655
H          5.00390       -2.51686       -0.59293
C          4.78965       -0.85590        0.76373
H          5.31045        0.09358        0.98612
H          4.91699       -1.49193        1.65479
C          3.31039       -0.57168        0.53412
H          2.75169       -1.51578        0.41225
H          2.86222       -0.07484        1.40755
