36
Napthalene_H7_Int1_Sub25.log	Energy: -820216.4875547
C          0.47581       -1.34179       -0.79745
C         -0.54900       -1.70975        0.14125
C          0.22159       -0.36843       -1.77858
C         -1.82419       -1.08051        0.07797
C         -0.28454       -2.67962        1.12865
C         -1.07205        0.24113       -1.84533
H          0.93107       -0.22015       -2.59543
C         -2.04744       -0.09268       -0.95040
C         -2.80368       -1.45909        1.02252
C         -1.26098       -3.02988        2.03861
H          0.71172       -3.12640        1.16597
H         -1.27107        0.98538       -2.61628
C         -3.38221        0.60345       -1.04143
H         -3.78896       -0.99515        1.00369
C         -2.52362       -2.41496        1.97995
H         -1.05305       -3.77834        2.80622
H         -3.29492       -2.69211        2.70213
O          2.99213        0.14563       -1.08608
C          3.71891       -0.81753       -0.58508
O          3.35219       -1.57203        0.29965
C          5.08817       -0.90061       -1.21626
H          5.68959       -0.04475       -0.87481
H          5.57872       -1.83386       -0.91554
H          5.01715       -0.83372       -2.31054
H          1.38030       -1.95203       -0.82690
Pd         1.32593        0.56441       -0.11792
O          1.86477        2.06731        1.28099
C          0.65536        2.12284        1.64018
O         -0.17064        1.36143        1.03875
C          0.20334        3.01260        2.74459
H         -0.85764        3.26301        2.62101
H          0.32672        2.47543        3.69775
H          0.82276        3.91769        2.77846
F         -4.37792       -0.26983       -1.23899
F         -3.42241        1.47973       -2.04554
F         -3.66472        1.27257        0.08085
