36
Napthalene_H7_Int1_Sub30.log	Energy: -633475.7185959
C          0.06108       -1.41332        0.60412
C          1.27668       -1.40787       -0.16546
C          0.00678       -0.71861        1.82561
C          2.40627       -0.68862        0.31375
C          1.34348       -2.09699       -1.39251
C          1.16105       -0.02029        2.29722
H         -0.84826       -0.86300        2.48997
C          2.32591        0.01459        1.57565
C          3.57854       -0.69186       -0.47259
C          2.50556       -2.08334       -2.13835
H          0.45148       -2.62049       -1.74497
H          1.10085        0.50504        3.25290
C          3.50693        0.78388        2.07799
H          4.45850       -0.14358       -0.13359
C          3.62737       -1.37625       -1.67260
H          2.55199       -2.61502       -3.09131
H          4.54491       -1.36355       -2.26559
O         -2.66524       -0.37999        0.70980
C         -3.13923       -1.24829       -0.14249
O         -2.52723       -1.68701       -1.10108
C         -4.55729       -1.66002        0.17880
H         -5.23104       -0.81759       -0.03834
H         -4.84139       -2.52223       -0.43603
H         -4.66141       -1.89393        1.24727
H         -0.72504       -2.11160        0.31181
Pd        -0.95664        0.47830        0.22449
O         -1.50761        2.24884       -0.82192
C         -0.28236        2.53508       -0.91892
O          0.55634        1.73951       -0.38514
C          0.18093        3.74094       -1.66248
H          1.15597        4.07235       -1.28418
H          0.29158        3.47421       -2.72495
H         -0.56511        4.54200       -1.58647
H          3.77388        1.59044        1.37651
H          4.39392        0.14001        2.18713
H          3.29425        1.24015        3.05364
