33
Napthalene_H7_Int1_Sub2.log	Energy: -897139.8246360
C         -0.11010       -1.39136       -0.29108
C         -1.42232       -1.28893        0.30048
C          0.08327       -0.98110       -1.62465
C         -2.49393       -0.76577       -0.47252
C         -1.64416       -1.68782        1.63341
C         -1.00433       -0.45246       -2.38873
Cl         1.51197       -1.43698       -2.48617
C         -2.24137       -0.35724       -1.81966
C         -3.77297       -0.66707        0.11421
C         -2.90809       -1.58119        2.18083
H         -0.79318       -2.04149        2.21960
H         -0.82102       -0.14499       -3.41850
H         -3.07186        0.04696       -2.40363
H         -4.59801       -0.26189       -0.47677
C         -3.97669       -1.07165        1.41866
H         -3.07828       -1.88525        3.21611
H         -4.97015       -0.99030        1.86557
O          2.44031       -0.21272        0.28368
C          2.56782       -0.85215        1.41197
O          1.64685       -1.11939        2.16732
C          3.99905       -1.24045        1.69829
H          4.58632       -0.33143        1.89586
H          4.03689       -1.90109        2.57244
H          4.44432       -1.73164        0.82188
H          0.63463       -2.00920        0.20986
Pd         0.68490        0.60871       -0.06969
O          0.96683        2.62166        0.52878
C         -0.22173        2.86701        0.18149
O         -0.89807        1.91166       -0.31953
C         -0.83160        4.21158        0.38035
H         -1.62969        4.38094       -0.35318
H         -1.27180        4.24942        1.38884
H         -0.06132        4.99002        0.31244
