42
Napthalene_H7_Int1_Sub29.log	Energy: -682773.6678701
C          0.39326       -1.34169       -0.83071
C         -0.65728       -1.76344        0.05625
C          0.12228       -0.38029       -1.81924
C         -1.95299       -1.18523       -0.05998
C         -0.39513       -2.73712        1.04073
C         -1.18988        0.17240       -1.93207
H          0.85998       -0.18865       -2.60178
C         -2.20358       -0.18492       -1.08048
C         -2.95036       -1.62952        0.83717
C         -1.39234       -3.14689        1.90239
H          0.61730       -3.14142        1.11464
H         -1.36646        0.91191       -2.71338
C         -3.55475        0.49260       -1.15285
H         -3.95610       -1.21246        0.78169
C         -2.67699       -2.58810        1.79446
H         -1.18428       -3.89863        2.66690
H         -3.46849       -2.91155        2.47459
O          2.85401        0.22084       -1.01230
C          3.60729       -0.71122       -0.49370
O          3.25671       -1.47878        0.38593
C          4.99144       -0.74078       -1.09936
H          5.54918        0.14420       -0.75804
H          5.51660       -1.64861       -0.77970
H          4.93708       -0.68934       -2.19553
H          1.31923       -1.91923       -0.83667
Pd         1.14364        0.57063       -0.09388
O          1.56775        2.13186        1.29560
C          0.35084        2.12413        1.62750
O         -0.42288        1.31169        1.02467
C         -0.17059        3.00497        2.71107
H         -1.23629        3.21387        2.55398
H         -0.05768        2.47978        3.67214
H          0.41140        3.93399        2.75728
H         -4.31788       -0.27726       -0.94895
C         -3.65750        1.56320       -0.05953
H         -4.66384        2.01006       -0.04860
H         -3.44195        1.15342        0.93691
H         -2.92210        2.36083       -0.24407
C         -3.88273        1.08591       -2.51778
H         -3.77424        0.34403       -3.32308
H         -4.92084        1.45020       -2.52842
H         -3.23876        1.94698       -2.75560
