36
Napthalene_H7_Int1_Sub17.log	Energy: -820219.1581660
C         -0.08435        0.55377       -1.42871
C          0.75077        1.66388       -1.04930
C          0.37167       -0.76665       -1.27294
C          2.04484        1.40410       -0.52327
C          0.30274        2.99151       -1.18438
C          1.68860       -0.99764       -0.74559
H         -0.17589       -1.59020       -1.73727
C          2.48451        0.04912       -0.38565
C          2.86134        2.49101       -0.14987
C          1.12241        4.03953       -0.81000
H         -0.70478        3.16915       -1.56771
C          2.13206       -2.41964       -0.56587
H          3.47815       -0.14241        0.02386
H          3.85575        2.29356        0.25760
C          2.40639        3.78784       -0.29260
H          0.77097        5.06879       -0.91074
H          3.04497        4.62399        0.00112
O         -2.47364       -0.94236       -0.69349
C         -3.29591       -0.03895       -1.15667
O         -3.09420        1.16304       -1.12065
C         -4.54851       -0.64212       -1.74580
H         -5.17157       -1.03615       -0.92892
H         -5.10752        0.12576       -2.29339
H         -4.30106       -1.48656       -2.40358
H         -0.98740        0.77052       -2.00145
Pd        -0.97276       -0.26809        0.39211
O         -1.68283       -0.29633        2.39291
C         -0.54390        0.09549        2.77032
O          0.34445        0.27300        1.87363
C         -0.24679        0.37692        4.20197
H          0.82614        0.26045        4.39892
H         -0.53139        1.41802        4.41963
H         -0.84045       -0.28295        4.84702
F          3.41046       -2.50656       -0.19772
F          1.98565       -3.11874       -1.69695
F          1.40007       -3.03780        0.36899
