33
OneHPyrrolo23bpyridine_H9_deriv1_Int1_Sub6.log	Energy: -918027.6008925
C          0.12562       -1.38278        0.63216
C         -0.46851       -0.96244        1.88537
C         -0.69164       -1.49259       -0.52436
C          0.38392       -0.96474        3.10995
N         -1.73134       -0.59873        1.98098
C         -2.02991       -1.09408       -0.42883
Cl        -0.10581       -2.24101       -1.95676
C         -2.44912       -0.65656        0.85815
C         -3.15580       -0.99828       -1.30168
N         -3.75947       -0.31989        0.75384
C         -4.18943       -0.51697       -0.54005
H         -3.18893       -1.25269       -2.35770
H         -4.30614        0.04258        1.52351
H         -5.21720       -0.29939       -0.82212
O          2.35850       -0.27474       -0.78062
C          3.25405       -0.46862        0.14462
O          3.05708       -0.31994        1.33992
C          4.58963       -0.89810       -0.41420
H          5.04369       -0.05096       -0.94968
H          5.25046       -1.21219        0.40238
H          4.45902       -1.71106       -1.14190
H          1.08737       -1.89550        0.66220
Pd         0.67227        0.54873       -0.18758
O          0.87923        2.59629       -0.71969
C         -0.29457        2.79069       -0.30362
O         -0.92513        1.79096        0.17304
C         -0.94527        4.12867       -0.39001
H         -1.68395        4.24419        0.41315
H         -0.18766        4.92088       -0.34481
H         -1.46803        4.20375       -1.35608
H         -0.07770       -0.34147        3.88540
H          1.39839       -0.61455        2.87001
H          0.46932       -1.99351        3.49948
