42
OneHPyrrolo23bpyridine_H11_Int1_Sub20.log	Energy: -703660.6223841
C         -0.50543       -1.34918        0.55886
C          0.88255       -0.94166        0.57696
C         -1.04601       -0.91759        1.79854
C          1.10686       -0.28230        1.80275
C          1.95232       -1.02446       -0.31478
H         -1.99226       -1.21066        2.25223
N         -0.06225       -0.31356        2.53359
N          2.23841        0.27707        2.18957
C          3.17008       -0.45354        0.05512
H          1.81995       -1.51722       -1.27849
H         -0.19235        0.17850        3.40753
C          3.23582        0.17927        1.31885
C          4.40869       -0.47018       -0.84075
H          4.17793        0.63997        1.63536
O         -3.35427       -0.80105        0.08267
C         -3.45904       -1.70368       -0.85424
O         -2.56545       -2.03091       -1.61569
C         -4.83937       -2.31837       -0.91004
H         -5.54977       -1.56813       -1.28847
H         -4.83263       -3.18663       -1.57945
H         -5.17617       -2.60683        0.09533
H         -0.95757       -2.07353       -0.12209
Pd        -1.75352        0.35832        0.11810
O         -2.34746        2.22384       -0.77121
C         -1.19800        2.66342       -0.50318
O         -0.38715        1.88700        0.10280
C         -0.76833        4.03341       -0.90582
H          0.03586        4.39069       -0.25064
H         -0.38544        3.99062       -1.93723
H         -1.62571        4.71805       -0.88878
C          4.14184       -1.19905       -2.15796
H          5.05222       -1.19404       -2.77603
H          3.85879       -2.25014       -1.99426
H          3.34401       -0.71364       -2.74050
C          4.81994        0.97491       -1.15994
H          5.06736        1.54203       -0.25032
H          5.70789        0.98559       -1.81177
H          4.00754        1.50790       -1.67714
C          5.55547       -1.18653       -0.11249
H          6.45658       -1.20840       -0.74564
H          5.82262       -0.68399        0.82896
H          5.28048       -2.22513        0.12708
