39
OneHPyrrolo23bpyridine_H11_deriv1_Int1_Sub29.log	Energy: -967335.8470323
C          0.58377       -1.31312       -0.49177
C         -0.79622       -1.16367       -0.09847
C          0.66986       -0.73143       -1.78220
C         -1.47598       -0.50133       -1.14778
C         -1.55133       -1.44694        1.03779
H          1.47973       -0.82955       -2.50434
N         -0.57151       -0.28905       -2.16389
N         -2.73962       -0.12892       -1.16428
C         -2.89319       -1.07972        1.04467
Cl        -0.82857       -2.20854        2.39784
H         -0.77836        0.25455       -2.99134
C         -3.44721       -0.42196       -0.07012
H         -3.50901       -1.28882        1.91978
C         -4.89623        0.00694       -0.07152
O          3.32446       -0.19040       -0.84058
C          3.87120       -1.16338       -0.16219
O          3.32422       -1.80025        0.72027
C          5.29858       -1.42596       -0.58656
H          5.93086       -0.59185       -0.24698
H          5.65336       -2.36058       -0.13644
H          5.37673       -1.46838       -1.68170
H          1.33006       -1.96206       -0.02476
Pd         1.60192        0.58005       -0.25619
O          2.08126        2.46002        0.67579
C          0.84456        2.65301        0.81214
O          0.04765        1.76501        0.35817
C          0.30850        3.85552        1.51128
H         -0.70364        4.08541        1.15555
H          0.25727        3.63794        2.58940
H          0.98235        4.70919        1.36609
H         -5.33844       -0.32183        0.88341
C         -4.99124        1.52980       -0.15380
H         -6.04279        1.85514       -0.15093
H         -4.47964        2.00989        0.69404
H         -4.51729        1.88664       -1.08049
C         -5.65174       -0.66479       -1.21631
H         -5.62014       -1.76148       -1.13012
H         -6.70690       -0.35165       -1.22272
H         -5.19943       -0.38702       -2.18007
