30
OneHPyrrolo23bpyridine_H11_Int1_Sub18.log	Energy: -893380.4776060
C         -0.09919       -1.41108        0.34829
C          1.30314       -1.06673        0.25124
C         -0.48787       -1.05047        1.66389
C          1.68388       -0.50814        1.49374
C          2.27078       -1.13571       -0.74872
H         -1.39783       -1.33403        2.19190
N          0.59334       -0.54415        2.33405
N          2.87328       -0.02797        1.80685
C          3.53139       -0.64304       -0.42672
H          2.05844       -1.54363       -1.73834
H          0.57641       -0.11710        3.25089
C          3.78638       -0.10100        0.84744
Cl         4.80893       -0.67780       -1.59058
H          4.78659        0.28367        1.07029
O         -2.95260       -0.68988        0.21491
C         -3.19772       -1.53510       -0.74989
O         -2.39681       -1.87518       -1.60319
C         -4.61425       -2.06070       -0.70896
H         -5.30295       -1.25249       -0.99755
H         -4.71972       -2.89821       -1.40852
H         -4.88453       -2.36986        0.31015
H         -0.65473       -2.06067       -0.33244
Pd        -1.29172        0.37883        0.15869
O         -1.86734        2.32735       -0.52970
C         -0.67333        2.69103       -0.35905
O          0.15015        1.83163        0.10263
C         -0.21087        4.06274       -0.71247
H          0.66399        4.33866       -0.11065
H          0.08146        4.06955       -1.77399
H         -1.02736        4.78321       -0.57769
