42
OneHPyrrolo23bpyridine_H9_Int1_Sub20.log	Energy: -703655.3690944
C          0.66801       -0.37350        1.87916
C          0.37195        0.80593        2.63896
C         -0.31809       -0.90376        1.00617
H          1.12933        1.18911        3.33060
N         -0.76423        1.45671        2.56580
C         -1.54537       -0.20253        0.90741
H         -0.17108       -1.88790        0.55773
C         -1.66398        0.95941        1.71152
C         -2.75896       -0.33175        0.15302
N         -2.88864        1.49788        1.47373
C         -3.54453        0.73610        0.53874
C         -3.08495       -1.38105       -0.88560
H         -3.22704        2.34568        1.90774
H         -4.54027        1.01483        0.20341
O          2.07839       -1.49582       -0.48206
C          3.18754       -1.73830        0.16584
O          3.62781       -1.05197        1.06967
C          3.88657       -2.98110       -0.33520
H          4.27191       -2.79268       -1.34836
H          4.71812       -3.23294        0.33343
H          3.18019       -3.81989       -0.40631
H          1.57212       -0.93441        2.12530
Pd         1.20504        0.24306       -0.16853
O          1.84549        1.45837       -1.78770
C          1.08378        2.37020       -1.36176
O          0.41361        2.13451       -0.30437
C          0.93870        3.66917       -2.07706
H          0.78263        4.48154       -1.35554
H          1.82126        3.86036       -2.69952
H          0.05238        3.61551       -2.72794
C         -4.47117       -1.12993       -1.48031
H         -4.70534       -1.89639       -2.23449
H         -5.25460       -1.17148       -0.70747
H         -4.52459       -0.14785       -1.97541
C         -2.04165       -1.31633       -2.01161
H         -1.02387       -1.51718       -1.64549
H         -2.26890       -2.06113       -2.79061
H         -2.03390       -0.32014       -2.47974
C         -3.06843       -2.77380       -0.24017
H         -3.29881       -3.54783       -0.98925
H         -2.08580       -3.01167        0.19240
H         -3.81459       -2.84173        0.56597
