46
OneHPyrrolo23bpyridine_H9_Int1_Sub3.log	Energy: -752208.5427539
C          0.02393        0.07374       -1.45910
C         -1.07828        0.86266       -0.94986
C          1.30835        0.65604       -1.61160
C         -2.41866        0.20093       -0.78439
N         -0.93059        2.12013       -0.60079
C          1.45454        2.00979       -1.23061
H          2.09687        0.11608       -2.14076
C          0.29222        2.64467       -0.73357
C          2.50459        2.97553       -1.20556
N          0.62699        3.92693       -0.42533
C          1.95666        4.13251       -0.70357
H          3.53827        2.83704       -1.51368
H         -0.02005        4.59987       -0.03712
H          2.41993        5.09985       -0.52210
O          1.92991       -2.06665       -0.82910
C          1.13638       -3.05885       -1.12642
O         -0.06595       -3.07497       -0.92634
C          1.87209       -4.22131       -1.75127
H          2.48321       -4.71286       -0.97943
H          1.15161       -4.94039       -2.15858
H          2.55696       -3.87140       -2.53591
H         -0.20971       -0.89218       -1.91232
Pd         1.17711       -0.60672        0.26066
O          1.65919       -1.11309        2.26957
C          1.13101       -0.02695        2.63431
O          0.64316        0.72713        1.72987
C          1.09311        0.38798        4.06489
H          0.14802        0.90328        4.28074
H          1.22327       -0.48365        4.71754
H          1.91546        1.09630        4.24900
H         -2.61855       -0.36472       -1.71508
C         -3.55259        1.19791       -0.56761
H         -3.59073        1.91052       -1.40689
H         -3.32039        1.79982        0.32655
C         -4.89160        0.49285       -0.38864
H         -5.68723        1.23510       -0.21317
H         -5.15872       -0.03079       -1.32485
C         -4.84275       -0.51743        0.75226
H         -5.80918       -1.03890        0.84754
H         -4.68355        0.02139        1.70418
C         -3.71271       -1.51958        0.54942
H         -3.92745       -2.13751       -0.34104
H         -3.65437       -2.21813        1.39961
C         -2.36689       -0.83156        0.35857
H         -2.07597       -0.30152        1.28335
H         -1.58633       -1.58044        0.14924
