46
OneHPyrrolo23bpyridine_H11_deriv1_Int1_Sub3.log	Energy: -1040537.8369110
C         -0.23359       -0.54290        0.99736
C         -1.45019       -1.28271        0.73315
C          0.72845       -1.02871        0.06254
C         -1.19700       -2.13682       -0.36417
C         -2.74564       -1.29686        1.24446
C          2.21636       -0.88933        0.09368
N          0.12345       -1.97100       -0.72416
N         -2.04988       -2.94773       -0.95840
C         -3.67258       -2.15273        0.65062
Cl        -3.18242       -0.27652        2.55450
H          0.53254       -2.39683       -1.54560
C         -3.27441       -2.94356       -0.43492
H         -4.69620       -2.19637        1.02333
H         -4.00526       -3.61193       -0.90223
O          1.24629        1.93682        0.64978
C          0.88000        2.46951        1.78585
O         -0.21383        2.32266        2.29828
C          1.97712        3.29686        2.41679
H          2.21377        4.14983        1.76398
H          1.65105        3.65894        3.39882
H          2.89571        2.70059        2.51669
H         -0.00921       -0.02800        1.93164
Pd        -0.15893        1.04714       -0.42397
O         -0.73468        2.47670       -1.92713
C         -1.51120        1.60287       -2.39383
O         -1.52547        0.45551       -1.83477
C         -2.42209        1.89040       -3.53875
H         -2.63575        0.97060       -4.09765
H         -3.37123        2.27992       -3.13913
H         -1.98275        2.65619       -4.19006
H          2.42145        0.02220        0.67542
C          2.83145       -0.70075       -1.29545
H          2.37851        0.17811       -1.78159
H          2.59785       -1.57538       -1.93236
C          4.34496       -0.54792       -1.20527
H          4.77318       -0.43771       -2.21403
H          4.57425        0.38797       -0.66597
C          4.98527       -1.72472       -0.47714
H          6.07296       -1.57422       -0.38808
H          4.84785       -2.64239       -1.07791
C          4.36505       -1.93122        0.90035
H          4.60159       -1.06272        1.54059
H          4.80577       -2.81124        1.39542
C          2.85095       -2.08720        0.81757
H          2.60091       -3.01543        0.27285
H          2.41375       -2.18738        1.82373
