33
OneHPyrrolo23bpyridine_H9_Int1_Sub22.log	Energy: -629705.9395786
C          0.12634       -1.24219        1.30472
C         -0.63712       -0.61209        2.34367
C         -0.49512       -1.52128        0.05860
H         -0.15358       -0.42649        3.30835
N         -1.89076       -0.24602        2.21711
C         -1.84661       -1.13066       -0.08601
H          0.00995       -2.14168       -0.68555
C         -2.44775       -0.49458        1.02797
C         -2.82482       -1.19684       -1.12720
N         -3.72797       -0.19377        0.68282
C         -3.95798       -0.60767       -0.60740
C         -2.63854       -1.76567       -2.49170
H         -4.38155        0.27992        1.29126
H         -4.92659       -0.45183       -1.07868
O          2.18990       -0.85923       -0.79187
C          3.19243       -1.13648       -0.00080
O          3.23699       -0.86719        1.18573
C          4.32061       -1.83493       -0.72467
H          4.80656       -1.11951       -1.40489
H          5.05337       -2.20494        0.00211
H          3.93502       -2.65949       -1.34013
H          1.10715       -1.64930        1.56015
Pd         0.78019        0.32651       -0.09240
O          1.28764        2.25042       -0.83413
C          0.22312        2.69323       -0.31998
O         -0.51721        1.86880        0.30788
C         -0.17848        4.12092       -0.46322
H         -0.84997        4.41204        0.35395
H          0.71265        4.76096       -0.48761
H         -0.71286        4.24213       -1.41816
H         -1.81947       -1.25746       -3.02607
H         -3.55030       -1.66156       -3.09619
H         -2.38331       -2.83693       -2.45256
