39
OneHPyrrolo23bpyridine_H9_Int1_Sub13.log	Energy: -679006.0944231
C          0.06870       -1.03061        1.24371
C         -0.54323       -0.28831        2.30953
C         -0.66768       -1.36583        0.06906
H          0.05348       -0.07577        3.20243
N         -1.77619        0.15406        2.27613
C         -1.99638       -0.87038        0.02773
C         -0.12016       -2.37344       -0.91618
C         -2.44888       -0.13609        1.15696
C         -3.09662       -0.92578       -0.88653
N         -3.73882        0.22421        0.92740
C         -4.13434       -0.24332       -0.30020
H         -3.13279       -1.40482       -1.86056
H         -4.28859        0.77524        1.57263
H         -5.13955       -0.05629       -0.67146
O          2.34850       -0.52802       -0.43095
C          3.23846       -0.53136        0.52612
O          3.05744       -0.05976        1.63409
C          4.53545       -1.18733        0.11355
H          5.03735       -0.55437       -0.63342
H          5.18505       -1.30730        0.98858
H          4.34318       -2.15994       -0.36087
H          1.00985       -1.53881        1.45887
Pd         0.74137        0.55722       -0.06802
O          1.12786        2.39875       -1.06052
C         -0.01701        2.79242       -0.70703
O         -0.73117        1.99224       -0.02008
C         -0.54229        4.13124       -1.09854
H         -1.19477        4.52613       -0.30921
H          0.28705        4.81920       -1.30340
H         -1.14176        4.02009       -2.01527
H          0.93727       -2.51709       -0.64701
C         -0.84979       -3.70700       -0.73899
H         -0.40148       -4.47306       -1.38994
H         -0.78634       -4.06409        0.29985
H         -1.91582       -3.62069       -0.99932
C         -0.14836       -1.89046       -2.36351
H          0.40453       -0.94599       -2.47390
H          0.32917       -2.63712       -3.01566
H         -1.17203       -1.73360       -2.73241
