33
OneHPyrrolo23bpyridine_H11_Int1_Sub17.log	Energy: -816455.8723468
C         -0.49810       -1.36632        0.51298
C          0.89265       -0.96841        0.53417
C         -1.02919       -0.95448        1.76063
C          1.12817       -0.33291        1.77735
C          1.95762       -1.04179       -0.35767
H         -1.97366       -1.25174        2.21550
N         -0.03535       -0.37127        2.50608
N          2.26324        0.20870        2.18382
C          3.16467       -0.48218        0.05316
H          1.85661       -1.51156       -1.33777
H         -0.15638        0.09482        3.39588
C          3.26526        0.12491        1.31935
C          4.35525       -0.47013       -0.86137
H          4.22176        0.55503        1.63378
O         -3.35478       -0.74993        0.07766
C         -3.47765       -1.65603       -0.85513
O         -2.58443       -2.01767       -1.60113
C         -4.87662       -2.22292       -0.92661
H         -5.55090       -1.45646       -1.33731
H         -4.88656       -3.10495       -1.57764
H         -5.24511       -2.47656        0.07687
H         -0.96332       -2.06549       -0.18649
Pd        -1.72780        0.36876        0.12435
O         -2.28521        2.25290       -0.73168
C         -1.12540        2.66719       -0.46592
O         -0.32919        1.86320        0.12609
C         -0.66829        4.03082       -0.85379
H          0.12945        4.37237       -0.18249
H         -0.26459        3.98513       -1.87718
H         -1.51497        4.72863       -0.85023
F          4.25582       -1.40271       -1.81140
F          5.49024       -0.69026       -0.19052
F          4.49057        0.70982       -1.47724
