46
OneHPyrrolo23bpyridine_H11_Int1_Sub19.log	Energy: -752211.9561042
C         -0.94475       -1.19597        0.86997
C          0.37816       -0.64368        1.07098
C         -1.74718       -0.64985        1.90525
C          0.30781        0.20920        2.19613
C          1.60259       -0.73779        0.41523
H         -2.73914       -0.97201        2.22055
N         -0.97691        0.15685        2.69732
N          1.29085        0.93712        2.68742
C          2.67301        0.01236        0.90898
H          1.71249       -1.37322       -0.46726
H         -1.31388        0.75394        3.44084
C          2.44676        0.82310        2.03954
C          4.03034       -0.01495        0.25388
H          3.27976        1.41850        2.43254
O         -3.67663       -1.03236       -0.19921
C         -3.52627       -2.07153       -0.97442
O         -2.47813       -2.41261       -1.49455
C         -4.81800       -2.83097       -1.17682
H         -5.49267       -2.22792       -1.80288
H         -4.61331       -3.78616       -1.67456
H         -5.32592       -2.99532       -0.21643
H         -1.19664       -2.05809        0.24850
Pd        -2.20634        0.28264       -0.06575
O         -2.75460        1.92598       -1.34010
C         -1.71545        2.51757       -0.94457
O         -0.98266        1.92739       -0.08292
C         -1.31813        3.85044       -1.48215
H         -0.69965        4.38833       -0.75285
H         -0.72348        3.69537       -2.39573
H         -2.20993        4.43124       -1.74923
H          4.69101        0.64441        0.84659
C          3.99303        0.54637       -1.17362
H          3.57235        1.56469       -1.15888
H          3.30064       -0.06441       -1.78090
C          5.37337        0.53884       -1.82034
H          5.30906        0.91738       -2.85322
H          6.03240        1.23864       -1.27489
C          5.99399       -0.85374       -1.79920
H          7.00531       -0.83093       -2.23616
H          5.39462       -1.52694       -2.43882
C          6.03854       -1.41836       -0.38351
H          6.72788       -0.80928        0.22914
H          6.45092       -2.44019       -0.38791
C          4.65874       -1.41388        0.26465
H          3.99693       -2.10964       -0.28225
H          4.71208       -1.78798        1.29978
