39
OneHPyrrolo23bpyridine_H11_deriv1_Int1_Sub21.log	Energy: -967332.5919148
C         -0.51439       -1.25933        0.66699
C          0.88436       -0.90039        0.70258
C         -1.05224       -0.78525        1.89089
C          1.12487       -0.23279        1.92308
C          1.95892       -1.00091       -0.17837
H         -2.01797       -1.02876        2.33237
N         -0.05642       -0.20990        2.63324
N          2.26713        0.29357        2.31711
C          3.20107       -0.47111        0.19368
Cl         1.71240       -1.75377       -1.71034
H         -0.17843        0.29481        3.50124
C          3.27015        0.15643        1.45483
C          4.38905       -0.51082       -0.74263
H          4.22683        0.58077        1.77345
O         -3.36558       -0.54528        0.21370
C         -3.54724       -1.53529       -0.61858
O         -2.68451       -2.03010       -1.32179
C         -4.98013       -2.01798       -0.63129
H         -5.60874       -1.25662       -1.11709
H         -5.04948       -2.95945       -1.18881
H         -5.35642       -2.14497        0.39317
H         -0.98765       -1.97380       -0.01254
Pd        -1.68006        0.48432        0.16466
O         -2.14656        2.33252       -0.83170
C         -0.96184        2.69632       -0.60898
O         -0.20380        1.89893        0.03841
C         -0.43055        3.99609       -1.10945
H          0.38083        4.35180       -0.46208
H         -0.02371        3.84017       -2.12065
H         -1.23829        4.73571       -1.17420
H          4.30147       -1.45145       -1.31150
C          4.30704        0.64204       -1.74676
H          5.13158        0.58492       -2.47432
H          3.35892        0.61884       -2.30317
H          4.37372        1.61207       -1.22888
C          5.73546       -0.52826       -0.02779
H          5.78601       -1.32612        0.72844
H          6.54284       -0.69917       -0.75535
H          5.95172        0.42965        0.47097
