34
OneHPyrrolo23bpyridine_H11_Int1_Sub24.log	Energy: -676876.2087299
C         -0.04239       -1.33457        0.55651
C          1.35200       -0.96628        0.44550
C         -0.46893       -0.84135        1.81892
C          1.69062       -0.26589        1.62013
C          2.33789       -1.12498       -0.53253
H         -1.38589       -1.08424        2.35478
N          0.58197       -0.23586        2.44451
N          2.86435        0.27773        1.89340
C          3.58567       -0.56668       -0.25928
H          2.12012       -1.65106       -1.46226
H          0.53492        0.29625        3.30321
C          3.78991        0.12135        0.96217
O          4.65330       -0.61761       -1.07824
H          4.78074        0.55132        1.14273
O         -2.89494       -0.74686        0.24739
C         -3.08087       -1.67692       -0.64878
O         -2.24950       -2.04415       -1.46114
C         -4.47066       -2.26920       -0.58506
H         -5.19517       -1.51961       -0.93714
H         -4.52516       -3.15897       -1.22333
H         -4.73863       -2.51856        0.45099
H         -0.56112       -2.07783       -0.05239
Pd        -1.27685        0.38281        0.12899
O         -1.90382        2.23383       -0.76653
C         -0.73034        2.65878       -0.59684
O          0.11050        1.88301       -0.03221
C         -0.30994        4.01014       -1.06648
H          0.55679        4.36262       -0.49374
H         -0.02300        3.93833       -2.12700
H         -1.14826        4.71396       -0.98812
C          4.51257       -1.26385       -2.31266
H          4.25585       -2.33107       -2.18916
H          3.74045       -0.78398       -2.93993
H          5.48162       -1.18854       -2.82138
