33
OneHPyrrolo23bpyridine_H11_deriv1_Int1_Sub30.log	Energy: -918036.2672438
C          0.09900       -1.27425       -0.53961
C         -1.29661       -1.03677       -0.26192
C          0.32751       -0.70549       -1.81834
C         -1.84534       -0.33970       -1.36416
C         -2.16076       -1.26932        0.80577
H          1.18599       -0.85843       -2.47151
N         -0.84743       -0.18689       -2.30034
N         -3.07910        0.10563       -1.49137
C         -3.47465       -0.82544        0.69771
Cl        -1.60314       -2.06494        2.22281
H         -0.95201        0.36133       -3.14383
C         -3.89386       -0.14343       -0.46204
H         -4.17227       -0.99586        1.51788
C         -5.30320        0.34575       -0.59254
O          2.92646       -0.34245       -0.67051
C          3.35199       -1.34390        0.05185
O          2.69656       -1.93393        0.89198
C          4.78645       -1.70652       -0.25999
H          5.44629       -0.91452        0.12495
H          5.04078       -2.65929        0.21915
H          4.94561       -1.76333       -1.34566
H          0.76075       -1.96826       -0.01364
Pd         1.22054        0.54662       -0.22017
O          1.75713        2.38889        0.75160
C          0.53019        2.66900        0.79331
O         -0.29009        1.83870        0.27633
C          0.02883        3.90773        1.45389
H         -0.92778        4.21577        1.01363
H         -0.13379        3.69207        2.52130
H          0.77617        4.70719        1.37549
H         -5.30681        1.42979       -0.78126
H         -5.89870        0.13692        0.30533
H         -5.78787       -0.13052       -1.45866
