33
OneHPyrrolo23bpyridine_H11_deriv1_Int1_Sub22.log	Energy: -918034.5757167
C         -0.02389       -1.19462        0.67913
C          1.36760       -0.82488        0.56467
C         -0.45903       -0.63361        1.90715
C          1.70495       -0.06359        1.70602
C          2.36730       -0.99496       -0.39033
H         -1.37779       -0.85197        2.45038
N          0.58923        0.00536        2.51263
N          2.87058        0.49735        1.96070
C          3.62832       -0.43162       -0.16340
Cl         2.03359       -1.86921       -1.83440
H          0.53640        0.57281        3.34823
C          3.79891        0.29693        1.03130
C          4.74535       -0.57722       -1.14753
H          4.77928        0.74848        1.22270
O         -2.91514       -0.54938        0.42726
C         -3.15044       -1.60362       -0.30695
O         -2.34278       -2.14435       -1.04105
C         -4.57125       -2.09938       -0.15885
H         -5.25106       -1.38470       -0.64660
H         -4.67244       -3.08255       -0.63335
H         -4.85706       -2.14862        0.90093
H         -0.54415       -1.96277        0.09977
Pd        -1.26007        0.49505        0.15754
O         -1.85151        2.26265       -0.91343
C         -0.66045        2.66070       -0.81969
O          0.16899        1.92020       -0.19264
C         -0.20610        3.93505       -1.44544
H          0.66521        4.33424       -0.91138
H          0.08867        3.72707       -2.48571
H         -1.02765        4.66216       -1.46140
H          4.46950       -0.15335       -2.12583
H          4.99009       -1.63714       -1.31865
H          5.65035       -0.06621       -0.79205
