30
OneHPyrrolo23bpyridine_H11_deriv1_Int1_Sub18.log	Energy: -1181699.7852385
C         -0.23552       -1.16742        0.74731
C          1.15050       -0.76527        0.69485
C         -0.74586       -0.58874        1.93675
C          1.41016        0.03094        1.83306
C          2.19119       -0.93596       -0.21804
H         -1.68573       -0.81660        2.43841
N          0.25574        0.08960        2.57969
N          2.54706        0.63197        2.13356
C          3.40980       -0.31951        0.08665
Cl         1.95756       -1.83981       -1.64887
H          0.14755        0.67288        3.39913
C          3.52890        0.44409        1.26324
Cl         4.76579       -0.46260       -0.96184
H          4.49234        0.91852        1.47467
O         -3.12511       -0.57692        0.32493
C         -3.29834       -1.66100       -0.38340
O         -2.43656       -2.21583       -1.04157
C         -4.71950       -2.17111       -0.31213
H         -5.37021       -1.49194       -0.88326
H         -4.77414       -3.17750       -0.74362
H         -5.08114       -2.17262        0.72528
H         -0.70981       -1.95774        0.15760
Pd        -1.47372        0.48653        0.12354
O         -2.02980        2.21376       -1.02297
C         -0.85189        2.63444       -0.87547
O         -0.04894        1.92351       -0.18168
C         -0.38048        3.89659       -1.51126
H          0.43331        4.33962       -0.92352
H          0.00764        3.65770       -2.51361
H         -1.21569        4.59897       -1.62377
