46
OneHPyrrolo23bpyridine_H11_Int1_Sub3.log	Energy: -752216.4757725
C          0.21617        0.48785        1.28754
C          1.43870        1.26926        1.30982
C         -0.57587        1.01982        0.22637
C          1.35619        2.19297        0.24381
C          2.60512        1.27489        2.07025
C         -2.03619        0.83073       -0.03210
N          0.12863        2.02900       -0.36771
N          2.27477        3.06528       -0.12091
C          3.58816        2.19579        1.71356
H          2.74244        0.57912        2.90089
H         -0.13124        2.49656       -1.22638
C          3.37919        3.05454        0.62411
H          4.52598        2.25311        2.26891
H          4.15692        3.77353        0.34481
O         -1.01700       -2.01825        0.61865
C         -0.74323       -2.60991        1.75027
O          0.28314       -2.44764        2.38580
C         -1.85003       -3.53355        2.20604
H         -1.93870       -4.37088        1.49813
H         -1.62498       -3.91855        3.20755
H         -2.81447       -3.00575        2.20631
H         -0.17143       -0.08593        2.12838
Pd         0.45699       -0.99561       -0.22246
O          1.28825       -2.29041       -1.73023
C          2.06288       -1.34931       -2.04419
O          1.94786       -0.24448       -1.41632
C          3.11511       -1.51138       -3.08873
H          3.32235       -0.54946       -3.57452
H          4.04012       -1.85625       -2.60122
H          2.80873       -2.26712       -3.82255
H         -2.30345       -0.12807        0.43933
C         -2.37448        0.72983       -1.52189
H         -1.79944       -0.09394       -1.97447
H         -2.06570        1.65773       -2.04018
C         -3.86995        0.52414       -1.73044
H         -4.09738        0.47847       -2.80719
H         -4.15471       -0.45664       -1.31047
C         -4.68622        1.62182       -1.05675
H         -5.76375        1.43205       -1.18574
H         -4.47972        2.58648       -1.55547
C         -4.34320        1.74100        0.42412
H         -4.65620        0.81912        0.94602
H         -4.90713        2.56667        0.88680
C         -2.84860        1.94901        0.63974
H         -2.54266        2.92305        0.21735
H         -2.61115        1.98594        1.71482
