46
OneHPyrrolo23bpyridine_H9_deriv1_Int1_Sub27.log	Energy: -1040527.6343726
C         -1.62854       -1.49604       -0.24063
C         -1.27728       -0.99048       -1.53462
C         -0.59849       -1.67812        0.72327
H         -2.07059       -0.95688       -2.28633
N         -0.03822       -0.63846       -1.88604
C          0.68389       -1.27997        0.39871
Cl        -0.95965       -2.36875        2.25346
C          0.86642       -0.76917       -0.93574
C          1.95863       -1.22822        1.04441
N          2.18156       -0.45001       -1.05114
C          2.84748       -0.71099        0.13589
H          2.18828       -1.53070        2.06273
H          2.58192       -0.04201       -1.88516
C          4.30180       -0.41797        0.28282
O         -4.09430        0.07936        0.16899
C         -4.74277       -0.53632       -0.77792
O         -4.24779       -1.00316       -1.78881
C         -6.22601       -0.61518       -0.49226
H         -6.65584        0.39670       -0.53259
H         -6.71329       -1.25397       -1.23829
H         -6.40131       -1.00193        0.52133
H         -2.58899       -1.99668       -0.11342
Pd        -2.20449        0.58847        0.03666
O         -2.26294        2.66098        0.57180
C         -1.00640        2.67483        0.49873
O         -0.41932        1.58604        0.18746
C         -0.21916        3.91871        0.73335
H          0.81943        3.67154        0.98591
H         -0.22705        4.51926       -0.18930
H         -0.68588        4.51458        1.52828
H          4.57505       -0.72648        1.30639
C          4.60112        1.08350        0.15243
H          3.99713        1.64376        0.88351
H          4.28066        1.43239       -0.84652
C          6.08620        1.37512        0.33275
H          6.27620        2.45260        0.20417
H          6.37791        1.13112        1.37013
C          6.93921        0.56187       -0.63457
H          8.00909        0.75878       -0.46114
H          6.72789        0.88985       -1.66873
C          6.64752       -0.92968       -0.51283
H          6.96566       -1.28328        0.48443
H          7.23929       -1.50067       -1.24579
C          5.16416       -1.22871       -0.69592
H          4.86909       -0.98124       -1.73229
H          4.96076       -2.30312       -0.56472
