33
OneHPyrrolo23bpyridine_H11_Int1_Sub14.log	Energy: -629715.0416097
C         -0.21474       -1.29668       -0.75252
C         -1.54332       -1.16358       -0.19781
C         -0.22129       -0.54602       -1.95548
C         -2.28105       -0.34103       -1.07553
C         -2.15093       -1.60298        0.98468
H          0.51566       -0.55786       -2.75801
N         -1.46678       -0.01596       -2.14382
N         -3.52535        0.06918       -0.91412
C         -3.47114       -1.18035        1.16083
C         -1.40964       -2.45124        1.96631
H         -1.71810        0.67020       -2.84347
C         -4.09957       -0.36729        0.20493
H         -4.02332       -1.47011        2.05763
H         -5.13450       -0.04853        0.37113
O          2.51953       -0.53045       -0.64844
C          2.85621       -1.38529        0.27745
O          2.14869       -1.70217        1.22018
C          4.24063       -1.95472        0.07311
H          4.98313       -1.16881        0.27762
H          4.40173       -2.79570        0.75783
H          4.38049       -2.27138       -0.96972
H          0.50394       -2.06972       -0.48848
Pd         0.86901        0.49711       -0.28789
O          1.48754        2.32463        0.65864
C          0.27742        2.67272        0.67587
O         -0.57834        1.88196        0.15597
C         -0.16485        3.94642        1.31232
H         -1.09617        4.30065        0.85303
H         -0.35575        3.75496        2.37964
H          0.62672        4.70234        1.23577
H         -0.35396       -2.14487        2.03420
H         -1.41744       -3.50530        1.64192
H         -1.86782       -2.40679        2.96358
