39
OneHPyrrolo23bpyridine_H11_Int1_Sub5.log	Energy: -679016.0083071
C         -0.13997       -1.11232        0.80861
C         -1.52627       -0.84105        1.14041
C         -0.12608       -1.48394       -0.56890
C         -2.27379       -1.00925       -0.04669
C         -2.21862       -0.43776        2.27927
C          0.95072       -2.19442       -1.33618
N         -1.40688       -1.41597       -1.04202
N         -3.56885       -0.81709       -0.20058
C         -3.59146       -0.23944        2.14731
H         -1.70196       -0.27498        3.22766
H         -1.67642       -1.49420       -2.01402
C         -4.20987       -0.43659        0.90355
H         -4.19367        0.07588        3.00119
H         -5.28862       -0.27477        0.80394
O          2.45286       -0.01161        0.28697
C          2.82705        0.06756        1.53604
O          2.08952        0.35735        2.46109
C          4.29432       -0.24257        1.72551
H          4.89520        0.54546        1.24779
H          4.52993       -0.28817        2.79525
H          4.55389       -1.19110        1.23425
H          0.63505       -1.36476        1.53109
Pd         0.62809        0.64415       -0.11889
O          0.86933        2.65611       -0.84764
C         -0.37500        2.68807       -1.03472
O         -1.04722        1.63659       -0.76876
C         -1.06715        3.91856       -1.51540
H         -1.96670        3.65293       -2.08504
H         -1.37743        4.50871       -0.63922
H         -0.38297        4.52840       -2.11828
H          1.89273       -1.93579       -0.83048
C          0.73085       -3.70642       -1.23925
H          1.54961       -4.24151       -1.74339
H          0.69895       -4.04000       -0.19173
H         -0.21502       -4.00485       -1.71824
C          1.03711       -1.71997       -2.78322
H          1.19740       -0.63280       -2.83600
H          1.87574       -2.21341       -3.29536
H          0.12510       -1.96460       -3.35370
