39
OneHPyrrolo23bpyridine_H9_deriv1_Int1_Sub21.log	Energy: -967321.5562007
C         -0.80528       -1.46809       -0.47161
C         -0.21172       -0.76124       -1.56940
C          0.03514       -1.91351        0.58540
H         -0.86326       -0.51572       -2.41244
N          1.07732       -0.43995       -1.63495
C          1.37168       -1.56073        0.55671
Cl        -0.61365       -2.85385        1.86607
C          1.80415       -0.81351       -0.59450
C          2.51181       -1.71503        1.40444
N          3.12835       -0.54482       -0.43496
C          3.54323       -1.07602        0.77131
H          2.55301       -2.23301        2.35870
C          3.87506        0.35582       -1.30805
H          4.57559       -0.95942        1.09437
O         -3.21999        0.13841       -0.02591
C         -3.74502       -0.18067       -1.17509
O         -3.12174       -0.40559       -2.19774
C         -5.25460       -0.24197       -1.11461
H         -5.65068        0.77273       -0.96029
H         -5.64613       -0.65230       -2.05289
H         -5.58060       -0.85118       -0.26013
H         -1.79589       -1.90512       -0.59975
Pd        -1.31394        0.55461        0.16964
O         -1.36103        2.50492        1.04800
C         -0.10609        2.46292        1.12712
O          0.47884        1.41009        0.70464
C          0.68890        3.60675        1.65766
H          1.62669        3.24541        2.09851
H          0.93413        4.28099        0.82234
H          0.09980        4.16983        2.39223
H          3.28384        0.37495       -2.23591
C          3.88890        1.75948       -0.71572
H          4.34677        2.46972       -1.41999
H          2.86193        2.08629       -0.49817
H          4.46707        1.78680        0.22190
C          5.26149       -0.18735       -1.60966
H          5.20842       -1.20724       -2.01734
H          5.75810        0.45413       -2.35175
H          5.90043       -0.20359       -0.71257
