33
OneHPyrrolo23bpyridine_H11_deriv1_Int1_Sub25.log	Energy: -1104776.4317667
C          0.77766       -1.29014       -0.54647
C         -0.61247       -1.12323       -0.19260
C          0.91214       -0.68421       -1.82020
C         -1.24485       -0.42615       -1.25193
C         -1.40081       -1.42184        0.91514
H          1.74646       -0.77243       -2.51539
N         -0.30632       -0.20839       -2.23226
N         -2.50185       -0.03580       -1.29796
C         -2.74063       -1.03515        0.89386
Cl        -0.73061       -2.22166        2.27516
H         -0.47796        0.34948       -3.05882
C         -3.22283       -0.35249       -0.22845
H         -3.39388       -1.24872        1.73826
C         -4.66976        0.09451       -0.28960
O          3.54150       -0.19674       -0.76056
C          4.04586       -1.20427       -0.09858
O          3.44936       -1.86949        0.72935
C          5.48860       -1.46602       -0.46453
H          6.11323       -0.66458       -0.04210
H          5.80607       -2.43118       -0.05270
H          5.62433       -1.44434       -1.55449
H          1.49775       -1.96271       -0.07034
Pd         1.80823        0.57717       -0.21894
O          2.27776        2.42903        0.75525
C          1.03974        2.63652        0.85992
O          0.24827        1.76153        0.36958
C          0.49680        3.83446        1.55853
H         -0.49439        4.09054        1.16374
H          0.39287        3.59651        2.62857
H          1.19232        4.67725        1.46027
F         -5.29570       -0.45767       -1.32640
F         -4.75552        1.41610       -0.41903
F         -5.33314       -0.25047        0.81751
