39
OneHPyrrolo23bpyridine_H11_deriv1_Int1_Sub5.log	Energy: -967337.5019568
C         -0.18711       -1.07405        0.56257
C         -1.60638       -0.79542        0.49085
C          0.18986       -1.52206       -0.73899
C         -2.01680       -1.03197       -0.84087
C         -2.58012       -0.32114        1.36649
C          1.41528       -2.28533       -1.14936
N         -0.91980       -1.48792       -1.54038
N         -3.22009       -0.85189       -1.34866
C         -3.86875       -0.13188        0.86854
Cl        -2.19252        0.03024        3.00168
H         -0.92207       -1.62861       -2.54226
C         -4.12695       -0.40772       -0.48044
H         -4.66086        0.23504        1.52164
H         -5.13870       -0.25400       -0.87023
O          2.48768       -0.03117        0.60807
C          2.58012        0.19820        1.89260
O          1.67456        0.63738        2.57610
C          3.94288       -0.14127        2.45023
H          4.69147        0.54078        2.02060
H          3.93321       -0.03872        3.54167
H          4.23179       -1.16271        2.16412
H          0.36059       -1.27777        1.48202
Pd         0.81978        0.62499       -0.23404
O          1.25079        2.60160       -0.96912
C          0.07923        2.63639       -1.42774
O         -0.65099        1.59957       -1.28170
C         -0.47059        3.85411       -2.08950
H         -1.25089        3.57894       -2.81018
H         -0.92344        4.49508       -1.31725
H          0.33540        4.41836       -2.57504
H          2.19639       -1.99694       -0.43111
C          1.14446       -3.78651       -1.01970
H          2.05544       -4.35687       -1.25545
H          0.83137       -4.05037        0.00108
H          0.35190       -4.11241       -1.71169
C          1.88810       -1.90622       -2.54893
H          2.07993       -0.82555       -2.62418
H          2.82138       -2.43512       -2.79015
H          1.15377       -2.18402       -3.32407
