33
OneHPyrrolo23bpyridine_H11_Int1_Sub9.log	Energy: -816454.4762575
C          0.07059       -0.86733        1.00941
C          1.42648       -0.38722        0.85320
C         -0.47309       -0.10800        2.07548
C          1.63224        0.62611        1.81822
C          2.48439       -0.64829       -0.01891
H         -1.39348       -0.29767        2.62670
N          0.47988        0.74843        2.55977
N          2.72540        1.34798        1.98674
C          3.65167        0.08816        0.14440
C          2.32780       -1.66344       -1.12054
H          0.33534        1.46542        3.25853
C          3.71983        1.06302        1.15322
H          4.50617       -0.08221       -0.51073
H          4.64001        1.64325        1.27805
O         -2.86125       -0.55330        0.53981
C         -2.96914       -1.77361        0.08501
O         -2.07509       -2.40983       -0.44292
C         -4.36026       -2.33387        0.27544
H         -5.04275       -1.83747       -0.43079
H         -4.35505       -3.41268        0.08016
H         -4.73004       -2.12337        1.28830
H         -0.35437       -1.78723        0.59584
Pd        -1.28159        0.54575        0.10003
O         -1.96573        1.97349       -1.34640
C         -0.81707        2.48928       -1.31412
O          0.03964        1.98408       -0.51304
C         -0.43940        3.62604       -2.19996
H          0.35222        4.22661       -1.73457
H         -0.05239        3.21604       -3.14575
H         -1.32066        4.23923       -2.42576
F          3.46649       -1.84854       -1.78896
F          1.40213       -1.26886       -1.99681
F          1.94322       -2.84373       -0.63327
