30
OneHPyrrolo23bpyridine_H11_deriv1_Int1_Sub10.log	Energy: -1181667.8891958
C          0.04973        0.94227       -0.96502
C          1.41937        0.97745       -0.50906
C         -0.07664       -0.25923       -1.70448
C          2.07082       -0.18927       -0.97232
C          2.17944        1.83051        0.29008
H         -0.86478       -0.55500       -2.39603
N          1.14730       -0.88811       -1.73172
N          3.30687       -0.56576       -0.73037
C          3.50086        1.47676        0.55303
Cl         1.48569        3.25785        0.94259
Cl         1.39489       -2.45316       -2.29952
C          4.00409        0.27966        0.02505
H          4.12886        2.11721        1.17260
H          5.04014       -0.00257        0.23925
O         -2.75446       -0.03825       -0.70183
C         -3.22979        1.17836       -0.71882
O         -2.62838        2.17338       -0.35484
C         -4.64626        1.23215       -1.24332
H         -5.32008        0.78685       -0.49602
H         -4.93591        2.27423       -1.42244
H         -4.74255        0.63841       -2.16271
H         -0.65579        1.77915       -0.97832
Pd        -1.07506       -0.44182        0.25408
O         -1.65758       -1.47987        2.04123
C         -0.43345       -1.63302        2.29480
O          0.41001       -1.16739        1.45605
C          0.03615       -2.29923        3.54160
H          1.02885       -2.74048        3.38810
H          0.11134       -1.54023        4.33572
H         -0.68929       -3.05813        3.86033
