42
OneHPyrrolo23bpyridine_H11_deriv1_Int1_Sub12.log	Energy: -991980.6102055
C         -0.16517        0.62013       -1.23988
C          1.06437        1.22321       -0.79400
C          0.12065       -0.76428       -1.32951
C          2.01193        0.18497       -0.61989
C          1.47142        2.51628       -0.47271
H         -0.48949       -1.51941       -1.81796
N          1.41934       -1.01868       -0.97367
N          3.24969        0.33372       -0.17482
C          2.77511        2.70082       -0.02104
Cl         0.37822        3.83362       -0.61354
C          2.01634       -2.35954       -0.76435
C          3.60842        1.58233        0.10817
H          3.13494        3.69645        0.23894
H          4.63249        1.72121        0.47041
O         -2.67505       -0.85579       -0.70510
C         -3.41825        0.05271       -1.27857
O         -3.16006        1.24172       -1.32741
C         -4.67126       -0.53352       -1.88921
H         -5.33898       -0.87160       -1.08274
H         -5.18016        0.22659       -2.49352
H         -4.42819       -1.41401       -2.50019
H         -1.01429        1.13698       -1.69391
Pd        -1.16276       -0.29861        0.43736
O         -1.81295       -0.59579        2.47065
C         -0.65936       -0.25355        2.83956
O          0.19941        0.02707        1.93663
C         -0.29386       -0.13964        4.28037
H          0.77436       -0.34923        4.41937
H         -0.48683        0.89353        4.60841
H         -0.91195       -0.81545        4.88419
C          1.02780       -3.42537       -1.22552
H          1.48541       -4.41290       -1.07585
H          0.09299       -3.39885       -0.64558
H          0.78845       -3.32989       -2.29542
C          3.30120       -2.45695       -1.58730
H          4.02013       -1.68870       -1.27523
H          3.75747       -3.44731       -1.44329
H          3.08511       -2.32823       -2.65869
C          2.29965       -2.53608        0.72928
H          2.70504       -3.54174        0.91396
H          3.02800       -1.79198        1.07658
H          1.37483       -2.41275        1.31124
