33
OneHPyrrolo23bpyridine_H9_deriv1_Int1_Sub22.log	Energy: -918018.8294145
C          0.30345       -1.47528        0.32514
C         -0.05691       -0.87430        1.57672
C         -0.70974       -1.66666       -0.65389
H          0.72159       -0.81874        2.34253
N         -1.27967       -0.43811        1.86603
C         -1.97946       -1.18609       -0.39076
Cl        -0.34978       -2.47692       -2.12306
C         -2.17178       -0.58261        0.90070
C         -3.23383       -1.12220       -1.07336
N         -3.47224       -0.18866        0.97562
C         -4.10197       -0.50977       -0.21142
H         -3.45400       -1.48434       -2.07385
C         -4.05485        0.49343        2.10264
H         -5.15493       -0.26854       -0.34778
O          2.84697       -0.11697       -0.22485
C          3.45178       -0.64094        0.80317
O          2.92318       -0.92674        1.86346
C          4.92529       -0.86289        0.54631
H          5.42796        0.11256        0.46757
H          5.36257       -1.43759        1.37128
H          5.07493       -1.38329       -0.40988
H          1.23702       -2.03466        0.25717
Pd         0.99954        0.53780       -0.13003
O          1.19820        2.56627       -0.77206
C         -0.05500        2.66965       -0.71042
O         -0.71513        1.64534       -0.33283
C         -0.75816        3.92676       -1.09332
H         -1.74704        3.97116       -0.62062
H         -0.14997        4.79706       -0.81537
H         -0.88870        3.93796       -2.18642
H         -4.37911        1.50691        1.82192
H         -3.28306        0.56633        2.87904
H         -4.91542       -0.06663        2.49742
