34
OneHPyrrolo23bpyridine_H11_deriv1_Int1_Sub24.log	Energy: -965193.3222756
C         -0.29237       -1.23506        0.70773
C          1.11204       -0.89767        0.71202
C         -0.80682       -0.70405        1.91849
C          1.37882       -0.18368        1.90239
C          2.17287       -1.06631       -0.17633
H         -1.77145       -0.91253        2.37988
N          0.20554       -0.11382        2.62359
N          2.53377        0.33792        2.26994
C          3.41597       -0.53006        0.18254
Cl         1.96087       -1.90474       -1.65772
H          0.10247        0.42437        3.47379
C          3.52699        0.15385        1.40857
O          4.51315       -0.67175       -0.59501
H          4.51190        0.55540        1.67037
O         -3.13124       -0.50598        0.25301
C         -3.33144       -1.51609       -0.55090
O         -2.48134       -2.03298       -1.25349
C         -4.76676       -1.99041       -0.52980
H         -5.39835       -1.23822       -1.02591
H         -4.84945       -2.94555       -1.06163
H         -5.12841       -2.08870        0.50304
H         -0.78221       -1.97109        0.06419
Pd        -1.43721        0.50397        0.14616
O         -1.90344        2.32288       -0.89866
C         -0.71321        2.68520       -0.70474
O          0.05062        1.90092       -0.04814
C         -0.18471        3.96878       -1.24832
H          0.65938        4.32235       -0.64313
H          0.17146        3.79284       -2.27522
H         -0.98401        4.71943       -1.28832
C          4.61044        0.22921       -1.67926
H          3.76685        0.11423       -2.37964
H          4.64517        1.27439       -1.32564
H          5.54519       -0.00462       -2.20474
