33
OneHPyrrolo23bpyridine_H11_Int1_Sub22.log	Energy: -629712.3372008
C          0.08886       -1.44893        0.21483
C          1.49191       -1.15546        0.01189
C         -0.17533       -1.12704        1.57153
C          1.99656       -0.66205        1.23691
C          2.37513       -1.22208       -1.06203
H         -1.04975       -1.39713        2.16287
N          0.97633       -0.68892        2.16567
N          3.22546       -0.24329        1.46344
C          3.69154       -0.79921       -0.86018
H          2.04415       -1.58601       -2.03846
H          1.05179       -0.29442        3.09388
C          4.04439       -0.32104        0.41823
C          4.70477       -0.84528       -1.96568
H          5.07236        0.02126        0.58710
O         -2.73236       -0.64216        0.33927
C         -3.08730       -1.42230       -0.64514
O         -2.37854       -1.72730       -1.58854
C         -4.50737       -1.92119       -0.50146
H         -5.19951       -1.08184       -0.66631
H         -4.70177       -2.70669       -1.24120
H         -4.68597       -2.29464        0.51640
H         -0.54406       -2.05524       -0.43692
Pd        -1.04933        0.38404        0.18893
O         -1.61699        2.38113       -0.36807
C         -0.40191        2.70083       -0.27933
O          0.42897        1.79946        0.07414
C          0.07367        4.07528       -0.60780
H          1.01536        4.28954       -0.08736
H          0.25295        4.13311       -1.69258
H         -0.69712        4.81265       -0.35022
H          4.35033       -0.30402       -2.85648
H          4.91282       -1.88181       -2.27561
H          5.65702       -0.39322       -1.65454
