46
OneHPyrrolo23bpyridine_H9_deriv1_Int1_Sub11.log	Energy: -1040524.1872058
C          1.26865       -1.37650        0.73238
C          1.66910       -0.73254        1.94888
C         -0.11006       -1.37919        0.38255
H          2.72606       -0.79916        2.22047
N          0.83032       -0.10649        2.76382
C         -0.99876       -0.66728        1.17289
Cl        -0.60936       -2.27729       -0.99823
C         -0.43055       -0.08138        2.35996
C         -2.40363       -0.33994        1.16261
N         -1.44469        0.51828        3.02499
C         -2.61888        0.37638        2.31191
C         -3.38488       -0.62090        0.06754
H         -1.32123        1.02252        3.89248
H         -3.54283        0.81202        2.68469
O          3.29521       -0.49202       -1.20240
C          4.26713       -1.07938       -0.56404
O          4.32426       -1.23766        0.64314
C          5.35781       -1.55602       -1.49659
H          5.87897       -0.68263       -1.91619
H          6.07085       -2.17965       -0.94452
H          4.92739       -2.11351       -2.34001
H          1.94691       -2.09409        0.26973
Pd         1.86572        0.46502       -0.25774
O          1.92759        2.40749       -1.15572
C          0.91291        2.71148       -0.47687
O          0.44344        1.82654        0.31451
C          0.24640        4.03905       -0.59821
H         -0.03904        4.40647        0.39664
H          0.90660        4.75401       -1.10327
H         -0.67501        3.91824       -1.18829
H         -3.24215       -1.66952       -0.24974
C         -3.10218        0.26548       -1.15648
H         -2.05630        0.14050       -1.47664
H         -3.20770        1.32119       -0.84726
C         -4.05709       -0.04257       -2.30267
H         -3.85290        0.62431       -3.15577
H         -3.86643       -1.07023       -2.66130
C         -5.51293        0.07899       -1.86599
H         -6.18798       -0.19552       -2.69253
H         -5.73083        1.13560       -1.62541
C         -5.79980       -0.78048       -0.63917
H         -5.69774       -1.84684       -0.90974
H         -6.84195       -0.64411       -0.30835
C         -4.84096       -0.46491        0.50375
H         -5.01022        0.57607        0.83592
H         -5.04546       -1.11188        1.37247
