35
OneHPyrrolo23bpyridine_H9_Int1_Sub23.log	Energy: -664409.6510572
C          0.23977       -0.89933        1.63865
C         -0.46998       -0.07978        2.58023
C         -0.44243       -1.38543        0.49214
H          0.05886        0.26923        3.47323
N         -1.72716        0.26839        2.44965
C         -1.78809       -0.98584        0.32575
H          0.01319       -2.15738       -0.13090
C         -2.34194       -0.17180        1.34664
C         -2.81865       -1.20863       -0.64487
N         -3.63933        0.06177        1.03263
C         -3.93515       -0.53975       -0.17238
N         -2.70736       -1.96784       -1.80221
H         -4.26573        0.61900        1.59674
H         -4.92581       -0.45774       -0.61361
O          2.18522       -0.98774       -0.62013
C          3.22075       -1.18470        0.15227
O          3.34833       -0.73164        1.27499
C          4.27271       -2.04808       -0.50601
H          4.72730       -1.48975       -1.33793
H          5.04546       -2.31241        0.22539
H          3.81811       -2.95362       -0.93152
H          1.22172       -1.28395        1.92373
Pd         0.85720        0.35648       -0.05590
O          1.35219        2.09766       -1.17430
C          0.33570        2.66106       -0.68214
O         -0.37572        1.99147        0.13490
C         -0.04954        4.05049       -1.05951
H         -0.54204        4.54910       -0.21495
H          0.83345        4.61237       -1.38799
H         -0.76482        4.00286       -1.89515
H         -3.60158       -2.07769       -2.26667
C         -1.64958       -1.63227       -2.73440
H         -1.66210       -2.34550       -3.57066
H         -0.66444       -1.71606       -2.25465
H         -1.72768       -0.60641       -3.14612
