34
OneHPyrrolo23bpyridine_H9_deriv1_Int1_Sub24.log	Energy: -965148.3575763
C          0.59020       -1.45633        0.52859
C          0.08556       -0.71902        1.65117
C         -0.32540       -1.90308       -0.46280
H          0.79984       -0.46054        2.43762
N         -1.19016       -0.37554        1.80257
C         -1.65321       -1.52926       -0.35023
Cl         0.21789       -2.87567       -1.76651
C         -1.98587       -0.76283        0.82077
C         -2.84847       -1.68920       -1.12054
N         -3.31201       -0.48519        0.71340
C         -3.83563       -1.02946       -0.44049
H         -2.95245       -2.22698       -2.05891
O         -4.03209        0.22171        1.60440
H         -4.89297       -0.89859       -0.65982
O          2.98336        0.07551       -0.16969
C          3.59033       -0.19395        0.95233
O          3.04170       -0.34307        2.03001
C          5.08819       -0.30076        0.78037
H          5.49561        0.69472        0.54926
H          5.54050       -0.67842        1.70492
H          5.33293       -0.95668       -0.06657
H          1.58108       -1.90632        0.59415
Pd         1.07903        0.53777       -0.21215
O          1.09522        2.47199       -1.11808
C         -0.16298        2.45512       -1.10055
O         -0.73449        1.42796       -0.60369
C         -0.97047        3.57335       -1.66562
H         -1.96774        3.59460       -1.20858
H         -0.44961        4.52769       -1.51652
H         -1.08479        3.41234       -2.74870
C         -3.74020        1.61347        1.51853
H         -2.67858        1.80032        1.73570
H         -3.99871        2.00547        0.52107
H         -4.37119        2.08548        2.28136
