33
OneHPyrrolo23bpyridine_H9_Int1_Sub6.log	Energy: -629708.4488885
C          0.08649       -1.65102        0.04281
C         -0.62989       -1.68241        1.29882
C         -0.57693       -1.28042       -1.15421
C          0.10957       -2.10186        2.52683
N         -1.90082       -1.35656        1.38677
C         -1.94291       -0.94372       -1.05298
H         -0.07514       -1.38977       -2.11882
C         -2.50530       -1.00361        0.24666
C         -2.97856       -0.51958       -1.93924
N         -3.81068       -0.63870        0.14232
C         -4.10203       -0.34307       -1.16817
H         -2.90653       -0.36081       -3.01265
H         -4.44187       -0.57835        0.92981
H         -5.10210       -0.02797       -1.45780
O          2.28125       -0.24220       -1.11345
C          3.19662       -0.67541       -0.28919
O          3.02545       -0.83513        0.90758
C          4.51481       -0.95447       -0.97112
H          4.98406        0.00263       -1.24435
H          5.17619       -1.50229       -0.28947
H          4.36060       -1.51973       -1.90055
H          1.06498       -2.13072        0.00869
Pd         0.65014        0.42541       -0.22993
O          0.97552        2.51218        0.01471
C         -0.18018        2.60084        0.51325
O         -0.86561        1.53178        0.61023
C         -0.74745        3.90905        0.94658
H         -1.47806        3.75856        1.75124
H          0.05778        4.58215        1.26642
H         -1.26361        4.36946        0.08995
H          1.11626       -1.65808        2.53574
H          0.23477       -3.19784        2.53974
H         -0.45161       -1.80825        3.42231
