42
OneHPyrrolo23bpyridine_H9_deriv1_Int1_Sub12.log	Energy: -991970.6337713
C          0.71585       -1.30908        0.74531
C          0.92436       -0.60151        1.96879
C         -0.58122       -1.31676        0.15673
H          1.91225       -0.67648        2.43106
N         -0.02987        0.08911        2.57846
C         -1.59263       -0.54910        0.72623
Cl        -0.76763       -2.31680       -1.23396
C         -1.19720        0.10679        1.95780
C         -2.97682       -0.17339        0.48165
N         -2.27380        0.78261        2.41461
C         -3.32255        0.62992        1.53876
C         -3.89603       -0.49654       -0.68075
H         -2.25706        1.35044        3.25083
H         -4.26936        1.12527        1.73480
O          3.10948       -0.56915       -0.79685
C          3.92111       -1.16107        0.03262
O          3.74460       -1.27482        1.23316
C          5.14835       -1.70738       -0.66155
H          5.76551       -0.86815       -1.01535
H          5.72722       -2.32147        0.03835
H          4.86123       -2.29420       -1.54515
H          1.44138       -2.06573        0.44540
Pd         1.56031        0.46750       -0.18379
O          1.86799        2.36019       -1.12987
C          0.75310        2.72678       -0.67490
O          0.10439        1.89447        0.04249
C          0.18010        4.06745       -0.98388
H         -0.52668        4.37008       -0.20124
H          0.98478        4.80530       -1.09439
H         -0.36159        4.00559       -1.94046
C         -3.25784       -0.01145       -1.99055
H         -3.92946       -0.21459       -2.83967
H         -3.07275        1.07286       -1.94853
H         -2.30090       -0.50894       -2.19193
C         -4.18986       -2.00252       -0.73153
H         -4.69659       -2.32669        0.19032
H         -4.84934       -2.23285       -1.58333
H         -3.27481       -2.59708       -0.84280
C         -5.23199        0.23443       -0.51117
H         -5.89033        0.00088       -1.36112
H         -5.75566       -0.07744        0.40583
H         -5.09886        1.32703       -0.48497
