39
OneHPyrrolo23bpyridine_H11_deriv1_Int1_Sub13.log	Energy: -967331.8130438
C         -0.03430       -0.68509       -1.20215
C         -1.38553       -0.94261       -0.76665
C          0.00701        0.70831       -1.46771
C         -2.07512        0.29301       -0.77207
C         -2.09845       -2.05372       -0.32121
H          0.78556        1.25481       -1.99810
N         -1.21660        1.27376       -1.23048
N         -3.32300        0.50377       -0.39400
C         -3.42378       -1.86919        0.06659
Cl        -1.34796       -3.59634       -0.23546
C         -1.52154        2.70118       -1.17933
C         -3.97600       -0.58190        0.01116
H         -4.01682       -2.71289        0.42004
H         -5.01572       -0.43608        0.32272
O          2.72132        0.24923       -0.67354
C          3.26003       -0.87184       -1.07347
O          2.73913       -1.96908       -0.98740
C          4.63641       -0.66799       -1.66524
H          5.33213       -0.37873       -0.86345
H          4.98055       -1.59804       -2.13267
H          4.62540        0.15157       -2.39722
H          0.68990       -1.43124       -1.53789
Pd         1.07843        0.19543        0.42142
O          1.70015        0.60611        2.44268
C          0.48601        0.58122        2.77272
O         -0.37986        0.37909        1.85547
C          0.05164        0.74573        4.18930
H         -0.94484        1.20345        4.23230
H         -0.00822       -0.25096        4.65337
H          0.78554        1.34237        4.74497
H         -2.62115        2.73374       -1.14544
C         -0.97565        3.31646        0.10328
H         -1.29768        4.36459        0.19031
H         -1.33544        2.76100        0.98061
H          0.12593        3.29328        0.11330
C         -1.03540        3.40741       -2.43386
H         -1.43205        2.92735       -3.34024
H         -1.37036        4.45441       -2.42415
H          0.06427        3.41816       -2.49555
