35
OneHPyrrolo23bpyridine_H11_deriv1_Int1_Sub23.log	Energy: -952741.8229915
C         -0.30601       -1.18981        0.72016
C          1.09680       -0.84142        0.65333
C         -0.76953       -0.63452        1.94322
C          1.40600       -0.09255        1.80976
C          2.11664       -1.02454       -0.27007
H         -1.71725       -0.82925        2.44373
N          0.25962       -0.01501        2.58419
N          2.56767        0.45328        2.09508
C          3.38891       -0.47723       -0.00382
Cl         1.83282       -1.87987       -1.74196
H          0.18340        0.55478        3.41616
C          3.53193        0.25734        1.20271
N          4.42531       -0.65582       -0.87468
H          4.50145        0.70747        1.43282
O         -3.15824       -0.53855        0.33830
C         -3.37586       -1.58414       -0.41236
O         -2.55029       -2.12051       -1.12982
C         -4.80177       -2.07794       -0.30807
H         -5.46739       -1.35428       -0.80213
H         -4.89361       -3.05395       -0.79904
H         -5.11448       -2.14185        0.74335
H         -0.80893       -1.96226        0.13175
Pd        -1.48909        0.49961        0.12715
O         -2.03794        2.29207       -0.93286
C         -0.84597        2.67551       -0.80158
O         -0.03895        1.91851       -0.16610
C         -0.36367        3.95589       -1.39526
H          0.50013        4.33580       -0.83555
H         -0.04924        3.76320       -2.43269
H         -1.17655        4.69264       -1.41573
H          4.17616       -1.05301       -1.77027
C          5.68660        0.01150       -0.75145
H          6.32655       -0.27653       -1.59543
H          6.21398       -0.27980        0.17332
H          5.59679        1.11505       -0.75327
