30
OneHPyrrolo23bpyridine_H9_deriv1_Int1_Sub10.log	Energy: -1181689.7301272
C          0.35008       -1.36148        0.62507
C          0.42308       -0.66588        1.87602
C         -0.88780       -1.39396       -0.07266
H          1.36858       -0.72508        2.42201
N         -0.59653       -0.00809        2.41912
C         -1.95005       -0.67400        0.45134
Cl        -1.02496       -2.31569       -1.50884
C         -1.71022       -0.01486        1.70783
C         -3.30815       -0.37482        0.09870
N         -2.86138        0.60993        2.06153
C         -3.82445        0.40651        1.09800
Cl        -4.14492       -0.87279       -1.30685
H         -2.95740        1.16831        2.89941
H         -4.82128        0.83120        1.18460
O          2.84766       -0.49605       -0.66199
C          3.60050       -1.08359        0.22467
O          3.31678       -1.23555        1.40019
C          4.90484       -1.56928       -0.36495
H          5.52457       -0.70022       -0.63157
H          5.43461       -2.18858        0.36842
H          4.72273       -2.13423       -1.28965
H          1.12983       -2.08140        0.37465
Pd         1.21860        0.47641       -0.16423
O          1.56694        2.40550       -1.00492
C          0.40508        2.73268       -0.64670
O         -0.28882        1.85817       -0.02785
C         -0.16506        4.07348       -0.95678
H         -0.95069        4.33035       -0.23542
H          0.63003        4.82975       -0.95925
H         -0.61050        4.04108       -1.96313
