30
OneHPyrrolo23bpyridine_H9_deriv1_Int1_Sub26.log	Energy: -1181691.1734680
C         -0.59927       -1.48568       -0.26271
C         -0.40008       -0.93986       -1.57152
C          0.51685       -1.59315        0.61026
H         -1.25250       -0.96755       -2.25574
N          0.77626       -0.49161       -2.02190
C          1.73413       -1.09552        0.18217
Cl         0.34359       -2.31991        2.15394
C          1.76403       -0.56349       -1.15539
C          3.04924       -0.96656        0.73001
N          3.04192       -0.15030       -1.38307
C          3.79904       -0.38500       -0.25551
H          3.39275       -1.26088        1.71693
H          3.36348        0.29241       -2.23412
Cl         5.44375        0.04473       -0.24504
O         -3.14522       -0.07180        0.32319
C         -3.80945       -0.77142       -0.55217
O         -3.34740       -1.25421       -1.57119
C         -5.26336       -0.92881       -0.16804
H         -5.76013        0.05101       -0.22636
H         -5.75241       -1.63276       -0.85159
H         -5.35026       -1.27532        0.87116
H         -1.50758       -2.05543       -0.06341
Pd        -1.30609        0.55657        0.06614
O         -1.47604        2.60888        0.63023
C         -0.22985        2.71503        0.48514
O          0.41000        1.67631        0.10968
C          0.48961        3.98802        0.76941
H          1.43816        4.02219        0.21940
H         -0.14596        4.84483        0.51190
H          0.70643        4.03588        1.84776
