42
OneHPyrrolo23bpyridine_H11_deriv1_Int1_Sub20.log	Energy: -991978.1292151
C         -0.63988       -1.13048        0.83175
C          0.73652       -0.69057        0.86427
C         -1.24461       -0.54914        1.97530
C          0.89643        0.12444        2.00225
C          1.83844       -0.84127        0.02258
H         -2.21027       -0.79542        2.41545
N         -0.30678        0.16431        2.67273
N          1.99791        0.75262        2.35521
C          3.04919       -0.20498        0.35084
Cl         1.57851       -1.80375       -1.39201
H         -0.48526        0.75996        3.47045
C          3.02932        0.56723        1.53703
C          4.32817       -0.29067       -0.49349
H          3.94419        1.08214        1.83394
O         -3.50849       -0.63710        0.21655
C         -3.60879       -1.72829       -0.49411
O         -2.69712       -2.25576       -1.10583
C         -5.01384       -2.28713       -0.49074
H         -5.66242       -1.62526       -1.08413
H         -5.01481       -3.29106       -0.93135
H         -5.42011       -2.31082        0.52986
H         -1.05037       -1.94526        0.22856
Pd        -1.87905        0.47340        0.09590
O         -2.40740        2.16474       -1.12326
C         -1.25266        2.61911       -0.90934
O         -0.47712        1.94648       -0.15060
C         -0.77431        3.88094       -1.54261
H          0.00856        4.34400       -0.92902
H         -0.34557        3.63612       -2.52678
H         -1.61490        4.56903       -1.69687
C          5.48029        0.49992        0.13658
H          6.36985        0.39880       -0.50259
H          5.25546        1.57419        0.21730
H          5.74877        0.12252        1.13500
C          4.79038       -1.75246       -0.60287
H          4.04123       -2.39430       -1.08242
H          5.71396       -1.80721       -1.20020
H          5.00683       -2.16476        0.39465
C          4.07482        0.31025       -1.88565
H          4.99894        0.26865       -2.48330
H          3.29233       -0.22553       -2.43681
H          3.77141        1.36497       -1.80023
