33
OneHPyrrolo23bpyridine_H9_deriv1_Int1_Sub25.log	Energy: -1104765.6537079
C         -1.04190       -1.49408       -0.33282
C         -0.79667       -0.94578       -1.63530
C          0.04576       -1.61447        0.57125
H         -1.63748       -0.93985       -2.33444
N          0.38896       -0.50485       -2.04933
C          1.27971       -1.12119        0.17842
Cl        -0.17097       -2.35513        2.10034
C          1.35527       -0.58547       -1.15248
C          2.57803       -0.99426        0.76348
N          2.63714       -0.17584       -1.34058
C          3.36323       -0.41279       -0.19308
H          2.88939       -1.29069        1.76106
H          2.97104        0.26971       -2.18608
C          4.80719       -0.04353       -0.11956
O         -3.54386       -0.10825        0.37453
C         -4.22436       -0.70387       -0.56410
O         -3.77497       -1.06510       -1.63780
C         -5.67247       -0.90383       -0.18085
H         -6.17418        0.07486       -0.15087
H         -6.16502       -1.54732       -0.91929
H         -5.74874       -1.33904        0.82516
H         -1.96073       -2.05567       -0.16146
Pd        -1.71547        0.54104        0.09109
O         -1.87601        2.59038        0.65252
C         -0.63272        2.69927        0.48417
O          0.00098        1.65914        0.10110
C          0.08947        3.97416        0.74937
H          1.02301        4.01102        0.17435
H         -0.55532        4.82902        0.50911
H          0.33542        4.02226        1.82146
F          5.30936       -0.33466        1.07327
F          4.98113        1.26411       -0.34253
F          5.52128       -0.69103       -1.04624
