35
OneHPyrrolo23bpyridine_H9_deriv1_Int1_Sub31.log	Energy: -952739.4076700
C         -0.61553       -1.49709       -0.03966
C         -0.43241       -0.99972       -1.36578
C          0.50244       -1.57653        0.82901
H         -1.25798       -1.12686       -2.07056
N          0.76374       -0.58440       -1.84476
C          1.72714       -1.12307        0.37576
Cl         0.32188       -2.20784        2.42128
C          1.74525       -0.63929       -0.98781
C          3.04367       -1.00009        0.89271
N          3.03504       -0.25293       -1.24547
C          3.81387       -0.45559       -0.12430
H          3.38697       -1.26831        1.88759
H          3.32441        0.15286       -2.12413
N          5.12596       -0.12107       -0.12879
O         -3.24337        0.16608       -0.11403
C         -3.83509       -0.82633       -0.70897
O         -3.28551       -1.73936       -1.30149
C         -5.34164       -0.73713       -0.58823
H         -5.69578        0.19055       -1.06082
H         -5.80405       -1.60610       -1.07098
H         -5.63081       -0.69100        0.47151
H         -1.54054       -2.03046        0.18465
Pd        -1.33193        0.60064       -0.03581
O         -1.45177        2.65889        0.59069
C         -0.19439        2.67825        0.61307
O          0.42403        1.61336        0.27970
C          0.56430        3.88791        1.04387
H          1.60015        3.83905        0.68635
H          0.06430        4.79396        0.67752
H          0.56942        3.92668        2.14400
H          5.65235       -0.38947        0.68926
C          5.84527        0.28772       -1.30314
H          6.87888        0.52839       -1.02516
H          5.41236        1.20198       -1.74437
H          5.87964       -0.49442       -2.08444
