35
OneHPyrrolo23bpyridine_H11_deriv1_Int1_Sub15.log	Energy: -952717.4232020
C          0.01097        1.07957       -0.90159
C          1.38598        1.09697       -0.45346
C         -0.07893       -0.02075       -1.79192
C          2.04643        0.00445       -1.05822
C          2.14808        1.87055        0.41953
H         -0.86909       -0.27174       -2.49837
N          1.14053       -0.63433       -1.88698
N          3.30150       -0.36811       -0.89511
C          3.48343        1.51731        0.61070
Cl         1.44976        3.20438        1.24455
N          1.34921       -1.82763       -2.54457
C          4.00014        0.40211       -0.06282
H          4.11371        2.09829        1.28429
H          5.04796        0.12509        0.09308
O         -2.75587        0.04956       -0.71219
C         -3.25802        1.24089       -0.52681
O         -2.68046        2.17091        0.00706
C         -4.67191        1.35369       -1.05026
H         -5.33842        0.75264       -0.41379
H         -4.99197        2.40207       -1.03057
H         -4.74087        0.94664       -2.06858
H         -0.70410        1.90171       -0.81350
Pd        -1.06268       -0.44945        0.16901
O         -1.60435       -1.76739        1.78639
C         -0.37587       -1.92082        2.01078
O          0.45221       -1.31791        1.24701
C          0.12088       -2.74769        3.14739
H          1.08249       -3.20976        2.88970
H          0.28014       -2.08870        4.01494
H         -0.62251       -3.50698        3.41932
H          2.24507       -1.75054       -3.02261
C          1.34317       -2.97722       -1.64865
H          1.55949       -3.87147       -2.24955
H          0.34003       -3.09351       -1.21429
H          2.07831       -2.89880       -0.82966
