46
OneHPyrrolo23bpyridine_H9_Int1_Sub11.log	Energy: -752206.6482212
C         -0.02848       -0.02789        1.65512
C          1.06711        0.55140        2.37959
C         -0.72703        0.72254        0.66292
H          1.55564       -0.05236        3.15122
N          1.52104        1.76283        2.17067
C         -0.22218        2.02665        0.42553
C         -2.02853        0.21535        0.10105
C          0.88293        2.44631        1.21416
C         -0.54998        3.12655       -0.43033
N          1.19377        3.71763        0.84858
C          0.33962        4.13233       -0.14194
H         -1.34098        3.18180       -1.17262
H          1.96021        4.24246        1.24772
H          0.42634        5.12707       -0.57347
O         -0.26737       -2.32256       -0.07164
C         -0.00690       -3.21742        0.84405
O          0.81741       -3.07646        1.72910
C         -0.84617       -4.46491        0.69277
H         -0.55145       -4.98956       -0.22820
H         -0.69263       -5.12259        1.55642
H         -1.90925       -4.20395        0.59185
H         -0.46669       -0.94465        2.05250
Pd         0.96254       -0.78012       -0.12035
O          2.31931       -1.25323       -1.69014
C          2.86867       -0.13270       -1.50840
O          2.39740        0.61512       -0.59132
C          4.00928        0.32831       -2.34997
H          4.69015        0.95026       -1.75470
H          4.53698       -0.53241       -2.77860
H          3.61370        0.94396       -3.17253
H         -2.12576       -0.82935        0.43843
C         -2.08447        0.18360       -1.42961
H         -1.24971       -0.42472       -1.81178
H         -1.94745        1.20012       -1.83419
C         -3.41551       -0.37974       -1.91177
H         -3.44890       -0.37616       -3.01300
H         -3.48657       -1.43792       -1.60310
C         -4.59571        0.39698       -1.33834
H         -5.54767       -0.04692       -1.67153
H         -4.57881        1.42862       -1.73536
C         -4.53893        0.44707        0.18446
H         -4.67103       -0.57367        0.58614
H         -5.37218        1.04768        0.58368
C         -3.21054        1.00810        0.67917
H         -3.11963        2.06770        0.38343
H         -3.16809        0.98863        1.78022
