35
OneHPyrrolo23bpyridine_H11_deriv1_Int1_Sub31.log	Energy: -952753.1904574
C          0.34240       -1.28183       -0.55256
C         -1.03653       -1.14117       -0.18648
C          0.48175       -0.60167       -1.79132
C         -1.68259       -0.39594       -1.19936
C         -1.82925       -1.48395        0.91875
H          1.29009       -0.69873       -2.51546
N         -0.75521       -0.12197       -2.17198
N         -2.94292       -0.00101       -1.22491
C         -3.15549       -1.10829        0.93151
Cl        -1.14011       -2.34480        2.23836
H         -0.93539        0.48631       -2.95914
C         -3.67729       -0.36316       -0.16910
H         -3.79164       -1.36749        1.77838
N         -4.98104        0.00542       -0.16946
O          3.12962       -0.15816       -0.83350
C          3.65157       -1.17756       -0.20826
O          3.08550       -1.85873        0.62843
C          5.08090       -1.43778       -0.63019
H          5.72068       -0.63125       -0.24155
H          5.41829       -2.39955       -0.22609
H          5.17040       -1.42454       -1.72529
H          1.07963       -1.95258       -0.10294
Pd         1.40739        0.60525       -0.23204
O          1.89586        2.38199        0.90199
C          0.65988        2.59101        1.00804
O         -0.13986        1.77465        0.44010
C          0.12289        3.73415        1.80260
H         -0.86842        4.02554        1.43349
H          0.02327        3.41377        2.85127
H          0.82147        4.57959        1.76823
H         -5.52978       -0.20660        0.64953
C         -5.56022        0.80665       -1.21273
H         -6.64004        0.89546       -1.03645
H         -5.39836        0.34385       -2.19798
H         -5.12121        1.81821       -1.25139
