33
OneHPyrrolo23bpyridine_H11_Int1_Sub6.log	Energy: -629715.7287577
C         -0.15235       -1.49044       -0.02231
C         -1.49433       -1.30775        0.49795
C         -0.23254       -1.23819       -1.42416
C         -2.30662       -0.90804       -0.58671
C         -2.09750       -1.39067        1.75030
C          0.73874       -1.58867       -2.49566
N         -1.52282       -0.89959       -1.72404
N         -3.58621       -0.59419       -0.54438
C         -3.45275       -1.07550        1.82141
H         -1.52670       -1.67992        2.63541
H         -1.84263       -0.54922       -2.61796
C         -4.14160       -0.68573        0.66301
H         -3.98637       -1.12113        2.77238
H         -5.20595       -0.43458        0.72504
O          2.49835       -0.42505       -0.25383
C          2.95124       -0.91384        0.86996
O          2.29789       -1.01195        1.89322
C          4.39419       -1.35393        0.77509
H          5.03282       -0.46949        0.63277
H          4.68566       -1.87440        1.69492
H          4.54259       -2.00499       -0.09810
H          0.63074       -2.06952        0.46547
Pd         0.72166        0.44755       -0.16712
O          1.10181        2.55149        0.06104
C         -0.14311        2.73476        0.02092
O         -0.89191        1.71668       -0.15408
C         -0.74447        4.08653        0.20809
H         -1.71818        4.14530       -0.29419
H         -0.89962        4.25291        1.28535
H         -0.06051        4.85999       -0.16317
H          1.75585       -1.60033       -2.08551
H          0.70073       -0.86206       -3.32064
H          0.49584       -2.58385       -2.90350
