34
OneHPyrrolo23bpyridine_H11_deriv1_Int1_Sub8.log	Energy: -965201.9679191
C         -0.03735       -0.77898       -0.93963
C         -1.35708       -1.08022       -0.38458
C         -0.34283        0.03345       -2.08770
C         -2.32666       -0.37548       -1.12555
C         -1.83283       -1.81692        0.69338
O          0.42314        0.50761       -3.02392
N         -1.65946        0.28424       -2.15719
N         -3.62142       -0.32740       -0.92000
C         -3.20741       -1.80442        0.94539
Cl        -0.74726       -2.69241        1.69910
H         -2.09571        0.93166       -2.80312
C         -4.04566       -1.04989        0.12098
H         -3.61523       -2.37254        1.78195
H         -5.12197       -1.03381        0.31883
O          2.41043       -0.21250        0.74780
C          3.01343       -1.22370        0.22095
O          2.65533       -1.86068       -0.76623
C          4.27496       -1.59862        0.96962
H          3.99762       -2.01345        1.95042
H          4.84060       -2.34730        0.40251
H          4.88846       -0.70665        1.15694
H          0.81119       -1.48445       -0.96498
Pd         0.71185        0.71207        0.32726
O          0.79833        2.52383        1.55432
C         -0.33870        2.79836        1.10598
O         -0.86481        2.00041        0.25198
C         -1.10450        3.99736        1.55797
H         -1.65809        4.43454        0.71654
H         -1.83880        3.68110        2.31477
H         -0.42753        4.73386        2.00715
C          1.83797        0.36465       -2.88376
H          2.18482        1.02947       -2.07603
H          2.11447       -0.66764       -2.62897
H          2.26530        0.67036       -3.84430
