33
OneHPyrrolo23bpyridine_H11_deriv1_Int1_Sub9.log	Energy: -1104767.5494266
C         -0.15313        0.63340       -1.23890
C          1.11560        1.16777       -0.80406
C          0.02646       -0.76358       -1.32738
C          2.01362        0.09056       -0.64479
C          1.59545        2.43349       -0.46853
H         -0.59883       -1.49269       -1.83992
N          1.34218       -1.07476       -1.00874
N          3.25466        0.14689       -0.21194
C          2.91176        2.53466       -0.02531
Cl         0.57733        3.80932       -0.58129
C          1.84176       -2.39365       -0.80802
C          3.68488        1.37113        0.08464
H          3.32848        3.50515        0.24501
H          4.71706        1.44875        0.44133
O         -2.74321       -0.74540       -0.62677
C         -3.42831        0.19575       -1.22049
O         -3.06941        1.35332       -1.34453
C         -4.75275       -0.30608       -1.74674
H         -5.42078       -0.50759       -0.89594
H         -5.20500        0.45282       -2.39588
H         -4.62139       -1.25287       -2.28837
H         -0.99582        1.19820       -1.64976
Pd        -1.15363       -0.28849        0.44877
O         -1.76580       -0.48304        2.49318
C         -0.57638       -0.23506        2.82634
O          0.27072       -0.03381        1.89124
C         -0.15773       -0.14107        4.25204
H          0.88888       -0.45256        4.36118
H         -0.23946        0.90943        4.57161
H         -0.81904       -0.74848        4.88200
F          2.99973       -2.55604       -1.42005
F          0.96598       -3.25943       -1.30582
F          2.00926       -2.66292        0.47855
