30
OneHPyrrolo23bpyridine_H11_Int1_Sub2.log	Energy: -893375.5968561
C         -0.10211       -1.38716        0.33084
C         -1.48180       -1.21349        0.74462
C         -0.13512       -1.32952       -1.08905
C         -2.25737       -1.03271       -0.42294
C         -2.14492       -1.15308        1.96833
Cl         1.03391       -1.87904       -2.20560
N         -1.41907       -1.14128       -1.51665
N         -3.55242       -0.79871       -0.48411
C         -3.51744       -0.92138        1.93081
H         -1.60519       -1.27276        2.91009
H         -1.69210       -0.93994       -2.47049
C         -4.16488       -0.74976        0.69743
H         -4.09789       -0.86335        2.85316
H         -5.24366       -0.56218        0.67402
O          2.48532       -0.14129        0.02680
C          2.90750       -0.56432        1.18553
O          2.20628       -0.71775        2.17155
C          4.39006       -0.85863        1.18391
H          4.94573        0.08049        1.04510
H          4.67781       -1.32269        2.13455
H          4.64679       -1.51526        0.34072
H          0.68817       -1.83065        0.93542
Pd         0.64906        0.56525       -0.10035
O          0.88231        2.69244       -0.15962
C         -0.36634        2.78685       -0.29712
O         -1.04209        1.70618       -0.35630
C         -1.05156        4.10921       -0.35354
H         -1.99914        4.02636       -0.90023
H         -1.27082        4.43276        0.67579
H         -0.39306        4.85649       -0.81390
