39
OneHPyrrolo23bpyridine_H9_deriv1_Int1_Sub29.log	Energy: -967327.4968454
C         -0.86191       -1.49788       -0.24717
C         -0.57724       -0.97011       -1.54854
C          0.20619       -1.63451        0.68216
H         -1.39517       -0.97115       -2.27418
N          0.63173       -0.55782       -1.93750
C          1.45701       -1.17444        0.31865
Cl        -0.07179       -2.34827        2.21895
C          1.57183       -0.64986       -1.01773
C          2.74860       -1.06597        0.92316
N          2.86644       -0.26881       -1.17384
C          3.58170       -0.50397       -0.01069
H          3.02491       -1.36204        1.93178
H          3.21924        0.16025       -2.01878
C          5.02934       -0.14223        0.09092
O         -3.38603       -0.04332        0.24832
C         -4.03379       -0.68640       -0.68076
O         -3.54875       -1.12663       -1.70826
C         -5.50207       -0.83589       -0.34990
H         -5.98000        0.15473       -0.37254
H         -5.98163       -1.49476       -1.08335
H         -5.62752       -1.23341        0.66691
H         -1.79291       -2.04422       -0.09210
Pd        -1.52772        0.55580        0.06013
O         -1.67032        2.61973        0.60846
C         -0.41885        2.69604        0.49660
O          0.21111        1.63878        0.16122
C          0.31264        3.97657        0.71359
H          1.36851        3.78034        0.93762
H          0.25090        4.57723       -0.20695
H         -0.16115        4.54773        1.52232
H          5.34276       -0.44688        1.10217
C          5.87654       -0.91283       -0.92342
H          6.94380       -0.68018       -0.79061
H          5.74378       -1.99871       -0.81234
H          5.60958       -0.64537       -1.95876
C          5.23198        1.36960       -0.03473
H          4.63432        1.91445        0.71038
H          6.29084        1.63107        0.11145
H          4.93825        1.73406       -1.03252
