46
OneHPyrrolo23bpyridine_H9_deriv1_Int1_Sub3.log	Energy: -1040527.9954039
C         -0.12486        0.04434        1.34335
C          0.70184        1.08621        0.77458
C         -1.51890        0.26963        1.50047
C          2.17954        0.85644        0.63664
N          0.20077        2.22604        0.33842
C         -2.05579        1.46424        1.01408
Cl        -2.49606       -0.82958        2.38865
C         -1.11685        2.37582        0.45129
C         -3.34551        2.07328        0.93197
N         -1.81627        3.47052        0.05831
C         -3.15431        3.29358        0.33812
H         -4.28969        1.65450        1.26966
H         -1.39460        4.27039       -0.39438
H         -3.87892        4.06625        0.09069
O         -0.38451       -2.68882        0.46735
C          0.83594       -3.04351        0.74909
O          1.81872       -2.33773        0.58723
C          0.92125       -4.44553        1.30495
H          0.67320       -5.16383        0.50936
H          1.93638       -4.63896        1.67130
H          0.18616       -4.58486        2.10983
H          0.36253       -0.74739        1.91245
Pd        -0.62696       -0.99203       -0.49770
O         -1.02523       -1.58396       -2.50461
C         -1.17444       -0.36785       -2.79811
O         -1.04709        0.48690       -1.86041
C         -1.45643        0.07785       -4.19193
H         -0.52699        0.47396       -4.62893
H         -1.80773       -0.76482       -4.79917
H         -2.19619        0.88941       -4.18368
H          2.42870       -0.06081        1.19281
C          2.98954        2.03093        1.19419
H          2.74304        2.18363        2.25800
H          2.68062        2.94846        0.66575
C          4.48628        1.80218        1.02108
H          5.04618        2.67018        1.40588
H          4.79461        0.93612        1.63409
C          4.84732        1.53615       -0.43600
H          5.92722        1.33813       -0.53341
H          4.64141        2.44497       -1.03066
C          4.03902        0.37336       -1.00019
H          4.31665       -0.55961       -0.47895
H          4.27777        0.21763       -2.06487
C          2.54197        0.59289       -0.83292
H          2.20196        1.45168       -1.43815
H          1.99046       -0.29608       -1.17782
