39
Oxazole_H7_Int1_Sub3.log	Energy: -668320.8141576
C          0.12504       -0.25680        1.75286
C         -0.66319       -0.89256        0.77015
O          0.86250       -1.24110        2.35901
C         -1.90691       -0.42571        0.08406
N         -0.33357       -2.24405        0.77583
C          0.55084       -2.36461        1.70256
H          1.07512       -3.27012        2.00710
O          0.03268        1.89146       -0.38183
C         -0.17418        2.79263        0.53740
O          0.08301        2.67175        1.72341
C         -0.79300        4.05027       -0.02888
H         -1.67484        3.80110       -0.63594
H         -1.06658        4.73016        0.78634
H         -0.06922        4.54103       -0.69623
H          0.04645        0.71656        2.24917
Pd         1.10671        0.26587       -0.06653
O          2.77259        0.49211       -1.40894
C          3.17648       -0.63430       -1.01977
O          2.47215       -1.24687       -0.14618
C          4.44433       -1.23531       -1.51976
H          5.26804       -0.90758       -0.86673
H          4.38858       -2.33047       -1.48252
H          4.65216       -0.88519       -2.53846
H         -1.95821        0.66761        0.19230
C         -3.12635       -1.04417        0.78531
H         -3.12683       -0.75955        1.85018
H         -3.03096       -2.14303        0.74890
C         -4.42427       -0.61159        0.11371
H         -5.28107       -1.08841        0.61637
H         -4.55437        0.47795        0.24400
C         -4.42229       -0.94380       -1.37402
H         -5.35404       -0.59298       -1.84617
H         -4.40262       -2.04148       -1.49946
C         -3.21008       -0.33816       -2.07233
H         -3.28482        0.76395       -2.04425
H         -3.19728       -0.61951       -3.13734
C         -1.90642       -0.76304       -1.40868
H         -1.75586       -1.85024       -1.52275
H         -1.05073       -0.26744       -1.89419
