32
Oxazole_H6_Int1_Sub5.log	Energy: -595119.8210910
C          0.54962       -0.93982       -1.39826
C          0.73759       -1.35417       -0.06134
N         -0.40236       -1.76020       -1.99089
O         -0.11492       -2.41614        0.11793
C          1.89995       -1.26187        0.87896
C         -0.75236       -2.56971       -1.05704
H         -1.50735       -3.35409       -1.10065
O          0.94501        1.77447        0.21820
C          2.04518        1.96038       -0.45084
O          2.49636        1.22126       -1.30994
C          2.75185        3.23061       -0.03342
H          2.11441        4.09662       -0.26399
H          2.91611        3.23067        1.05351
H          3.70694        3.31609       -0.56463
H          1.20989       -0.26471       -1.94782
Pd        -0.48880        0.45829       -0.06647
O         -2.19517        1.61707        0.56906
C         -2.90146        0.59760        0.36230
O         -2.30864       -0.46072       -0.04360
C         -4.38000        0.60769        0.54062
H         -4.84403        0.90762       -0.41179
H         -4.74126       -0.39571        0.79880
H         -4.66313        1.33899        1.30778
H          2.48948       -0.40634        0.52124
C          1.46716       -1.02694        2.32227
H          2.34697       -1.00083        2.98187
H          0.93635       -0.06934        2.42505
H          0.80422       -1.83311        2.67256
C          2.75326       -2.52436        0.73174
H          3.07182       -2.67262       -0.31066
H          3.65652       -2.43925        1.35370
H          2.19831       -3.41777        1.05573
