41
Oxazole_H6_deriv1_Int1_Sub13.log	Energy: -669070.9988413
C          0.32230       -1.43006       -0.88483
C          0.51337       -1.50091        0.50534
N         -1.01335       -1.17695       -1.13256
O         -0.71133       -1.30698        1.06420
H          1.32656       -1.88726        1.12702
C         -1.56682       -1.09419        0.03441
C         -3.00812       -0.86357        0.37814
O          3.03767       -0.43543       -0.74630
C          3.74740       -1.17331        0.06371
O          3.37813       -1.58315        1.15099
C          5.12076       -1.47274       -0.49040
H          5.05313       -1.79594       -1.53822
H          5.72169       -0.55118       -0.47190
H          5.60838       -2.24027        0.12194
H          1.01160       -1.73690       -1.67106
Pd         1.34301        0.37319       -0.14600
O          1.73217        2.48990        0.01167
C          0.51926        2.64214        0.30327
O         -0.21330        1.59392        0.36063
C         -0.07928        3.97991        0.56918
H         -0.86226        4.17812       -0.17765
H         -0.56100        3.97486        1.55743
H          0.68907        4.76014        0.52422
C         -3.09182        0.06408        1.59712
H         -4.14254        0.30639        1.81218
H         -2.66825       -0.42399        2.48611
H         -2.53472        0.99527        1.42968
C         -3.72629       -0.27796       -0.87013
H         -3.42158       -0.91997       -1.71348
H         -5.69762        0.12217       -1.65781
C         -5.24686       -0.33641       -0.76481
C         -3.57506       -2.24724        0.74913
H         -4.59279       -2.14887        1.15185
H         -3.60882       -2.91104       -0.12825
H         -2.95491       -2.72473        1.52206
H         -5.63111       -1.36401       -0.69835
H         -5.61992        0.22379        0.10800
C         -3.27558        1.14411       -1.19360
H         -2.18141        1.23932       -1.20249
H         -3.65230        1.44112       -2.18402
H         -3.67252        1.86590       -0.46190
