26
Oxazole_H6_Int1_Sub14.log	Energy: -545823.6688476
C         -0.17338       -1.64539        0.72787
C         -0.12902       -1.59478       -0.67481
N          1.09132       -1.94746        1.19847
O          1.15337       -1.89529       -1.02622
H         -0.91734       -1.69781       -1.41731
C          1.82356       -2.06206        0.13778
C          3.27420       -2.31277        0.05343
O         -2.13518        0.69383        0.21375
C         -3.07066       -0.16728       -0.06635
O         -2.88914       -1.31028       -0.44889
C         -4.45255        0.41051        0.13725
H         -4.55501        0.78777        1.16471
H         -4.59622        1.26715       -0.53721
H         -5.20861       -0.35730       -0.06406
H         -1.06290       -1.70470        1.35266
Pd        -0.20099        0.44688        0.02116
O          0.46674        2.49820        0.01318
C          1.64404        2.06434       -0.06549
O          1.80859        0.79713       -0.11633
C          2.82367        2.97437       -0.06598
H          3.14660        3.12912        0.97525
H          3.65541        2.52283       -0.62144
H          2.54931        3.94806       -0.49034
H          3.78049       -1.38423       -0.25049
H          3.49407       -3.08496       -0.69697
H          3.64645       -2.62080        1.03656
