35
Oxazole_H6_deriv1_Int1_Sub14.log	Energy: -619772.8793350
C         -0.13762       -1.44770        0.75591
C         -0.14022       -1.40988       -0.64804
N          1.15126       -1.23148        1.19970
O          1.15584       -1.20824       -1.02385
H         -0.83519       -1.82798       -1.37266
C          1.85875       -1.08114        0.12509
C          3.33225       -0.83755        0.01671
O         -2.86688       -0.02950        0.12383
C         -3.39316       -1.20767       -0.04719
O         -2.77444       -2.23150       -0.28187
C         -4.89912       -1.18042        0.08060
H         -5.18367       -0.78469        1.06612
H         -5.32281       -0.50230       -0.67421
H         -5.30073       -2.19170       -0.05253
H         -0.93098       -1.82402        1.39945
Pd        -0.97451        0.46468        0.01240
O         -1.12727        2.62258        0.03104
C          0.12675        2.66415       -0.02179
O          0.75701        1.55069       -0.06173
C          0.88214        3.94794       -0.06162
H          1.74927        3.89229        0.61042
H          1.26038        4.10578       -1.08319
H          0.22906        4.78392        0.21479
C          3.61580        0.13143       -1.13583
H          4.69757        0.32337       -1.19409
H          3.28746       -0.28420       -2.09911
H          3.08976        1.08302       -0.97753
C          3.82939       -0.25760        1.33993
H          4.91734       -0.10124        1.29013
H          3.60593       -0.93146        2.17824
H          3.34224        0.70660        1.54523
C          4.00330       -2.19438       -0.25915
H          5.09129       -2.05609       -0.35234
H          3.81457       -2.90260        0.56137
H          3.63349       -2.63881       -1.19538
