26
Oxazole_H7_Int1_Sub14.log	Energy: -545824.5501131
C         -0.00162       -1.64455        0.54530
C          0.10383       -1.69914       -0.85488
O          1.25690       -1.82749        1.02795
H         -0.70115       -1.80837       -1.58119
N          1.43168       -1.89837       -1.18920
C          2.05743       -1.94168       -0.05871
C          3.50806       -2.05624        0.17988
O         -2.13239        0.13239       -0.62566
C         -2.97763       -0.29341        0.27329
O         -2.67801       -0.75405        1.36175
C         -4.41266       -0.14680       -0.17629
H         -4.53724       -0.52288       -1.20101
H         -5.07449       -0.68019        0.51603
H         -4.67572        0.92156       -0.18723
H         -0.85041       -1.72000        1.23161
Pd        -0.22503        0.36645       -0.18592
O          0.08616        2.49031       -0.10796
C          1.30647        2.25735        0.09376
O          1.67831        1.03537        0.14000
C          2.29298        3.35292        0.30758
H          2.33022        3.58509        1.38327
H          3.29305        3.03504       -0.01288
H          1.97586        4.25611       -0.22834
H          3.89324       -1.08419        0.52390
H          4.00891       -2.33105       -0.75478
H          3.71827       -2.80202        0.95925
