35
Oxazole_H6_Int1_Sub12.log	Energy: -619772.8786623
C         -0.13781       -1.44784        0.75580
C         -0.14037       -1.40992       -0.64814
N          1.15108       -1.23185        1.19966
O          1.15570       -1.20841       -1.02392
H         -0.83543       -1.82780       -1.37280
C          1.85857       -1.08141        0.12508
C          3.33202       -0.83762        0.01674
O         -2.86679       -0.02933        0.12417
C         -3.39319       -1.20742       -0.04703
O         -2.77458       -2.23121       -0.28217
C         -4.89917       -1.17999        0.08045
H         -5.18385       -0.78457        1.06605
H         -5.32261       -0.50152       -0.67419
H         -5.30091       -2.19116       -0.05312
H         -0.93124       -1.82407        1.39930
Pd        -0.97440        0.46470        0.01248
O         -1.12695        2.62260        0.03107
C          0.12708        2.66404       -0.02183
O          0.75723        1.55051       -0.06173
C          0.88259        3.94775       -0.06183
H          1.74976        3.89208        0.61014
H          1.26075        4.10546       -1.08345
H          0.22960        4.78382        0.21455
C          3.61535        0.13200       -1.13528
H          4.69711        0.32391       -1.19369
H          3.28672       -0.28311       -2.09868
H          3.08939        1.08354       -0.97631
C          3.82914       -0.25829        1.34021
H          3.60620       -0.93278        2.17814
H          4.91701       -0.10141        1.29029
H          3.34163        0.70556        1.54622
C          4.00321       -2.19422       -0.25987
H          5.09120       -2.05578       -0.35288
H          3.81446       -2.90297        0.56018
H          3.63352       -2.63807       -1.19643
