32
Oxazole_H7_Int1_Sub5.log	Energy: -595120.3794238
C         -0.67803        0.75607       -1.34081
C         -0.92110        1.39183       -0.10466
O          0.17208        1.57312       -2.04060
C         -2.03817        1.20359        0.88033
N         -0.16122        2.55678       -0.07531
C          0.44309        2.58709       -1.21053
H          1.14994        3.33568       -1.56775
O         -0.96895       -1.63802        0.46180
C         -1.63057       -2.27048       -0.46772
O         -1.59074       -2.02095       -1.66083
C         -2.48376       -3.38336        0.09596
H         -3.07707       -3.01969        0.94648
H         -3.13713       -3.78429       -0.68770
H         -1.82841       -4.18131        0.47571
H         -1.20166       -0.03372       -1.88989
Pd         0.49106       -0.38062        0.03145
O          2.25092       -1.36300        0.77523
C          2.91037       -0.35461        0.41099
O          2.26857        0.60702       -0.13419
C          4.38947       -0.27923        0.56859
H          4.85901       -0.70474       -0.33187
H          4.71063        0.76539        0.66562
H          4.70743       -0.87205        1.43522
H         -2.46447        0.20633        0.70560
C         -1.53142        1.27790        2.31614
H         -2.37142        1.19615        3.02158
H         -0.82797        0.45945        2.52922
H         -1.01705        2.23359        2.49671
C         -3.10624        2.26276        0.59781
H         -3.48598        2.18817       -0.43235
H         -3.95614        2.13358        1.28463
H         -2.69691        3.27416        0.74136
