44
Oxazole_H7_deriv1_Int1_Sub12.log	Energy: -693719.1979112
C         -0.29868       -1.29728        0.38197
C         -0.25151       -1.19650       -1.01851
O          0.87587       -0.78449        0.83663
H         -0.90078       -1.68338       -1.74583
N          0.94266       -0.60246       -1.37578
C          1.55608       -0.36628       -0.25971
C          2.88155        0.30592       -0.06398
O         -3.11442       -0.94571       -0.58052
C         -3.52907       -1.80512        0.30995
O         -2.96109       -2.06766        1.35651
C         -4.83107       -2.45949       -0.08985
H         -4.79303       -2.78985       -1.13690
H         -5.04155       -3.30410        0.57663
H         -5.64099       -1.71881       -0.01095
H         -0.92921       -1.86716        1.07123
Pd        -1.63422        0.29484       -0.18414
O         -2.54994        2.23155        0.01831
C         -1.39643        2.71230        0.15939
O         -0.40662        1.90356        0.11501
C         -1.16477        4.16424        0.39946
H         -0.95833        4.31549        1.47016
H         -0.28448        4.50242       -0.16324
H         -2.05313        4.74352        0.12147
C          4.00041       -0.80380        0.14058
C          3.13999        1.15484       -1.31432
H          4.03274        1.77844       -1.17341
H          3.27034        0.54240       -2.21585
H          2.28178        1.81805       -1.49097
C          2.77180        1.24650        1.14510
H          2.47716        0.71840        2.06019
H          3.73312        1.74826        1.32468
H          2.00890        2.01173        0.94563
C          3.88775       -1.45811        1.52176
H          4.60033       -2.29457        1.59012
H          4.12914       -0.75598        2.33254
H          2.88213       -1.86117        1.70941
C          3.87282       -1.90309       -0.91994
H          3.85074       -1.49764       -1.94158
H          4.73173       -2.58794       -0.84894
H          2.96162       -2.50434       -0.78216
C          5.39177       -0.17424        0.01868
H          6.15505       -0.92098        0.28675
H          5.60711        0.16158       -1.00551
H          5.52082        0.68276        0.69675
