26
Oxazole_H6_Int1_Sub6.log	Energy: -545819.5605067
C         -0.43688        1.55747       -0.88262
C         -0.36404        1.71331        0.51908
N          0.68832        2.13864       -1.45460
O          0.80907        2.38308        0.75601
C         -1.38920        1.75696        1.59168
C          1.36651        2.57392       -0.45491
H          2.33764        3.06759       -0.46905
O         -1.60001       -1.19754        0.20408
C         -2.76126       -0.83291       -0.25199
O         -3.02126        0.23720       -0.77833
C         -3.81101       -1.90189       -0.04617
H         -3.52679       -2.80704       -0.60228
H         -3.86249       -2.17878        1.01649
H         -4.78497       -1.53760       -0.39310
H         -1.33331        1.27564       -1.43861
Pd         0.16453       -0.35337        0.00514
O          1.41808       -2.09643        0.18541
C          2.41207       -1.33382        0.07668
O          2.18496       -0.08098       -0.04499
C          3.80847       -1.85034        0.05107
H          4.07631       -2.08001       -0.99195
H          4.50483       -1.09028        0.42695
H          3.87966       -2.77541        0.63655
H         -2.32547        1.34078        1.20342
H         -1.55480        2.80771        1.87687
H         -1.07182        1.20322        2.48601
