51
Oxazole_H6_deriv1_Int1_Sub3.log	Energy: -766928.5478296
C          0.15146        0.20466       -1.57972
C         -0.32019        0.76804       -0.37352
N          1.47145        0.57482       -1.75988
O          0.74208        1.47116        0.13847
C         -1.67918        1.18352        0.08379
C          1.76858        1.29044       -0.72530
C          3.06859        1.96045       -0.40294
O         -1.77113       -1.96992       -0.23609
C         -2.55358       -1.85311       -1.26904
O         -2.33297       -1.18576       -2.26540
C         -3.83407       -2.64019       -1.09797
H         -3.59980       -3.70435       -0.95183
H         -4.36187       -2.29876       -0.19546
H         -4.47103       -2.51005       -1.98060
H         -0.47461       -0.25124       -2.35033
Pd         0.08265       -1.34612       -0.01960
O          0.94540       -3.01932        1.05778
C          2.01139       -2.35976        1.12995
O          2.02772       -1.19411        0.60238
C          3.22696       -2.87992        1.81839
H          4.11665       -2.68005        1.20582
H          3.35149       -2.34558        2.77259
H          3.12462       -3.95343        2.01557
C          3.35823        1.83720        1.09682
H          4.32267        2.31557        1.32415
H          2.57955        2.32942        1.69688
H          3.40224        0.78032        1.39386
C          4.17609        1.29699       -1.21916
H          3.96477        1.35451       -2.29567
H          5.13572        1.79641       -1.01803
H          4.26531        0.23423       -0.95202
C          2.93010        3.44292       -0.79047
H          3.86608        3.97509       -0.56149
H          2.72560        3.55236       -1.86600
H          2.11572        3.92665       -0.23015
H         -2.38545        0.57822       -0.50358
C         -1.91686        2.65887       -0.27531
H         -1.77114        2.80430       -1.35776
H         -1.15943        3.27766        0.23646
C         -3.31311        3.10383        0.14333
H         -3.45374        4.16943       -0.09906
H         -4.06179        2.54877       -0.44973
C         -3.55876        2.85456        1.62721
H         -4.58398        3.15119        1.90097
H         -2.88045        3.49532        2.21951
C         -3.31218        1.39470        1.99024
H         -4.06227        0.76116        1.48332
H         -3.45309        1.23541        3.07109
C         -1.91990        0.93578        1.57490
H         -1.15478        1.48060        2.15586
H         -1.78928       -0.13561        1.79188
