38
Oxazole_H6_deriv1_Int1_Sub6.log	Energy: -644427.4097006
C          0.11060       -1.34877       -0.81009
C          0.07758       -1.41656        0.60022
N         -1.16885       -1.10755       -1.27551
O         -1.23567       -1.21813        0.94376
C          0.93064       -2.10876        1.59995
C         -1.90555       -1.02024       -0.21733
C         -3.38082       -0.77654       -0.13222
O          2.79841        0.06114        0.20161
C          3.46276       -0.90480       -0.36091
O          2.98237       -1.84455       -0.97299
C          4.95470       -0.75588       -0.16131
H          5.29755        0.17375       -0.63838
H          5.18455       -0.67261        0.91054
H          5.47549       -1.61632       -0.59737
H          0.94644       -1.66905       -1.43568
Pd         0.89503        0.52488        0.03293
O          1.02204        2.68468        0.10756
C         -0.23236        2.71363        0.05478
O         -0.85120        1.59504        0.00002
C         -1.00304        3.98919        0.07396
H         -1.79499        3.95736       -0.68670
H         -1.48771        4.09760        1.05622
H         -0.33531        4.84174       -0.09646
C         -3.68594        0.16471        1.03800
H         -4.76922        0.35183        1.08407
H         -3.37089       -0.27230        1.99635
H         -3.16105        1.12119        0.90877
C         -3.85062       -0.16307       -1.44985
H         -3.61355       -0.81761       -2.29969
H         -4.93872       -0.00280       -1.41742
H         -3.35397        0.80250       -1.62241
C         -4.06030       -2.13742        0.09866
H         -5.14980       -1.99954        0.17336
H         -3.85660       -2.82702       -0.73414
H         -3.70991       -2.60416        1.03157
H          1.11240       -1.48843        2.48827
H          1.88360       -2.37627        1.13037
H          0.41862       -3.02984        1.91976
