40
Pyrazole_H7_Int1_Sub19.log	Energy: -655851.5767183
C          0.63082       -1.58816        0.57327
C         -0.57365       -1.25661        1.22277
C          0.24472       -1.61916       -0.81089
N         -1.49851       -1.10426        0.27353
H         -0.79828       -1.11197        2.27689
H          0.85307       -1.90509       -1.66812
N         -1.04163       -1.32183       -0.96241
C         -2.88286       -0.68614        0.45940
O          3.07474       -0.60295       -0.74088
C          3.85408       -1.21720        0.10522
O          3.59326       -1.42745        1.27768
C          5.15641       -1.65304       -0.52746
H          5.76583       -0.76270       -0.74320
H          5.69986       -2.31216        0.15978
H          4.97052       -2.15957       -1.48467
H          1.54342       -1.96030        1.04701
Pd         1.47306        0.33644       -0.08943
O          1.96813        2.39997       -0.26132
C          0.79959        2.67809        0.11548
O          0.01500        1.70823        0.38528
C          0.32045        4.08592        0.22092
H         -0.30005        4.31439       -0.65925
H         -0.30668        4.20389        1.11462
H          1.17104        4.77736        0.24706
H         -3.00938       -0.57761        1.54953
C         -3.84214       -1.75724       -0.05118
H         -3.65035       -2.70704        0.47325
H         -3.62266       -1.92883       -1.11772
C         -5.29052       -1.31634        0.12923
H         -5.96534       -2.08551       -0.27797
H         -5.51988       -1.24542        1.20815
C         -5.55368        0.03341       -0.53001
H         -6.59496        0.34742       -0.35506
H         -5.43705       -0.06868       -1.62367
C         -4.58373        1.09443       -0.02094
H         -4.77744        1.28192        1.05114
H         -4.75425        2.05339       -0.53506
C         -3.13405        0.66380       -0.20732
H         -2.90249        0.55657       -1.27993
H         -2.42662        1.40324        0.19612
