28
Pyrazole_H7_Int1_Sub24.log	Energy: -580480.5856932
C          0.09296       -1.73259        0.53958
C         -1.17413       -1.72142        1.15092
C         -0.21561       -1.75031       -0.86382
N         -2.04950       -1.72593        0.14313
H         -1.49611       -1.69545        2.18776
H          0.47033       -1.87078       -1.70118
N         -1.53913       -1.75627       -1.06993
O         -3.37532       -1.70805        0.32528
O          2.27311       -0.13379       -0.69424
C          3.13944       -0.53657        0.19516
O          2.87819       -0.81372        1.35298
C          4.53988       -0.62186       -0.36670
H          4.91728        0.39661       -0.54273
H          5.19392       -1.13660        0.34695
H          4.53791       -1.14045       -1.33532
H          1.05374       -1.88714        1.03633
Pd         0.45775        0.35890       -0.12301
O          0.44373        2.48680       -0.16987
C         -0.78003        2.45594        0.12191
O         -1.32311        1.31078        0.28247
C         -1.58998        3.70043        0.25033
H         -2.14895        3.85620       -0.68532
H         -2.31692        3.59556        1.06647
H         -0.93561        4.56410        0.41865
C         -3.99526       -0.61052       -0.34653
H         -3.51483        0.33325       -0.04702
H         -3.93188       -0.74039       -1.43594
H         -5.04142       -0.64355       -0.02070
