36
Pyrazole_H7_Int1_Sub20.log	Energy: -607302.1714640
C          0.08982       -1.58252        0.43053
C         -1.14907       -1.23071        1.00359
C         -0.21691       -1.63994       -0.97143
N         -2.01798       -1.08511        0.00244
H         -1.41237       -1.06836        2.04378
H          0.44342       -1.92758       -1.78873
N         -1.48453       -1.33516       -1.20181
C         -3.42814       -0.63806        0.05817
O          2.62397       -0.56355       -0.62896
C          3.33115       -1.20024        0.26224
O          2.97338       -1.44529        1.40207
C          4.68427       -1.61544       -0.27017
H          5.30440       -0.71795       -0.41344
H          5.17250       -2.28925        0.44376
H          4.58122       -2.09930       -1.25134
H          0.96144       -1.96752        0.96760
Pd         0.96769        0.35563       -0.09829
O          1.44835        2.42797       -0.23167
C          0.25270        2.69110        0.05898
O         -0.53896        1.71165        0.26988
C         -0.24924        4.09348        0.12627
H         -0.73001        4.34139       -0.83274
H         -1.00292        4.18860        0.91878
H          0.58328        4.78791        0.29184
C         -3.79666       -0.31479        1.49923
H         -4.84262        0.02031        1.52848
H         -3.71305       -1.19484        2.15459
H         -3.17105        0.49689        1.89924
C         -3.55260        0.61171       -0.81259
H         -3.29477        0.37844       -1.85401
H         -4.58674        0.98412       -0.77540
H         -2.86739        1.39209       -0.45266
C         -4.29039       -1.77641       -0.48388
H         -5.34542       -1.46750       -0.50520
H         -3.97720       -2.03775       -1.50374
H         -4.20238       -2.67185        0.14985
