46
Pyrazole_H6_deriv1_Int1_Sub27.log	Energy: -705157.0482811
C          0.63428        0.78868        1.74307
C         -0.20521        0.61015        0.61520
N          0.33801       -0.22641        2.57390
C         -0.97128       -0.57473        0.93590
H         -0.46032        1.37334       -0.11883
H          0.81668       -0.46460        3.43300
N         -0.60670       -1.05827        2.09938
C         -1.99531       -1.24846        0.07794
O          1.83972        1.76099       -1.01305
C          2.36673        2.75669       -0.35816
O          2.64784        2.75150        0.82971
C          2.61821        3.95795       -1.24039
H          3.44669        3.72859       -1.92727
H          1.73569        4.17684       -1.85715
H          2.88380        4.82401       -0.62282
H          1.32038        1.60613        1.98127
Pd         1.72313       -0.01105       -0.15344
O          3.32389       -1.13397       -1.00887
C          2.91924       -2.13245       -0.35587
O          1.90605       -1.97284        0.40441
C          3.56314       -3.47024       -0.48222
H          3.49204       -4.01770        0.46631
H          3.02457       -4.04663       -1.25039
H          4.60805       -3.36042       -0.79720
H         -2.42728       -2.05014        0.70073
C         -3.12717       -0.27805       -0.30662
H         -2.99214        0.88589        1.52296
H         -2.67995        0.53233       -0.91700
C         -3.76025        0.36259        0.93093
C         -1.30248       -1.88799       -1.12887
H         -0.44767       -2.49561       -0.79890
H         -1.98838       -2.53643       -1.69170
H         -0.91900       -1.11636       -1.81678
H         -4.14823       -0.44289        1.58183
C         -4.89178        1.32070        0.57883
H         -5.33525        1.73625        1.49809
H         -4.47851        2.17963        0.01929
C         -5.95757        0.63766       -0.26895
H         -6.74721        1.35338       -0.54958
H         -6.44939       -0.14917        0.33149
C         -5.34146        0.00803       -1.51197
H         -4.94873        0.80788       -2.16579
H         -6.10943       -0.52044       -2.09968
C         -4.20580       -0.94766       -1.16033
H         -4.61128       -1.81136       -0.60041
H         -3.76790       -1.35425       -2.08453
