33
Pyrazole_H6_deriv1_Int1_Sub25.log	Energy: -769405.8278790
C         -0.19381       -0.86379        1.71234
C          0.62288       -0.84073        0.55596
N          0.32950        0.06161        2.54154
C          1.61387        0.16357        0.85975
H          0.69342       -1.61754       -0.20348
H         -0.05472        0.36848        3.42629
N          1.39778        0.69385        2.03935
C          2.70431        0.67836       -0.02424
O         -1.73032       -1.53356       -0.92865
C         -2.43579       -2.38325       -0.23581
O         -2.65330       -2.30557        0.96293
C         -2.98515       -3.50426       -1.08631
H         -3.76367       -3.10011       -1.75055
H         -2.19737       -3.92457       -1.72652
H         -3.41723       -4.28035       -0.44382
H         -1.01825       -1.53287        1.97671
Pd        -1.18654        0.17183       -0.10535
O         -2.53883        1.60849       -0.90591
C         -1.89405        2.50212       -0.29503
O         -0.90086        2.13166        0.41782
C         -2.23908        3.94582       -0.41782
H         -1.99469        4.47600        0.51147
H         -1.63662        4.38220       -1.22966
H         -3.29996        4.06184       -0.67122
H          3.31062        1.36191        0.58890
C          3.64341       -0.43720       -0.44452
F          4.13424       -1.08940        0.61049
F          4.67672        0.04191       -1.14098
F          3.02740       -1.34091       -1.22104
C          2.14741        1.42008       -1.23882
H          1.48328        2.22636       -0.90024
H          2.96034        1.84909       -1.84084
H          1.56185        0.74042       -1.87565
