27
Pyrazole_H6_Int1_Sub14.log	Energy: -533358.1615241
C         -0.10433       -1.59342        1.06505
C          0.09579       -1.80390       -0.32205
N          1.09969       -1.79295        1.63308
C          1.49725       -2.14313       -0.42435
H         -0.67948       -2.00965       -1.05913
H          1.34541       -1.63292        2.60156
N          2.06802       -2.10537        0.75677
C          2.25927       -2.46967       -1.65743
O         -1.96108        0.13459       -0.78748
C         -2.90840       -0.04192        0.08948
O         -2.73899       -0.26949        1.27695
C         -4.28691        0.07907       -0.51826
H         -4.47896        1.13638       -0.75536
H         -4.34643       -0.48202       -1.46087
H         -5.04013       -0.27729        0.19429
H         -1.02876       -1.41005        1.62080
Pd        -0.09953        0.35824       -0.17231
O          0.24983        2.45749       -0.26865
C          1.43976        2.23436        0.08297
O          1.77500        1.02307        0.30174
C          2.43961        3.33187        0.20965
H          3.22803        3.05051        0.91877
H          2.90159        3.50104       -0.77533
H          1.94309        4.26030        0.51875
H          2.28078       -1.60570       -2.33919
H          1.79777       -3.30872       -2.20006
H          3.29103       -2.73738       -1.39766
