24
Pyrazole_H7_Int1_Sub2.log	Energy: -797016.8584075
C          0.04762       -1.65141        0.23170
C          1.41442       -1.78674       -0.07779
C          0.07826       -1.40543        1.64915
N          2.09052       -1.60430        1.05901
Cl         2.18060       -2.09466       -1.55260
H         -0.77291       -1.30170        2.32094
N          1.31752       -1.37387        2.12340
H          3.10051       -1.56225        1.14922
O         -2.22568        0.23446        0.43945
C         -2.92265       -0.45819       -0.41706
O         -2.45969       -1.14668       -1.31171
C         -4.41074       -0.31770       -0.19222
H         -4.72092        0.69823       -0.47925
H         -4.94898       -1.05198       -0.80303
H         -4.65465       -0.44374        0.87162
H         -0.79354       -1.91789       -0.41839
Pd        -0.29508        0.52063        0.18441
O         -0.12146        2.59696       -0.21562
C          1.13072        2.45405       -0.22419
O          1.59274        1.28131       -0.02200
C          2.04956        3.60841       -0.42795
H          2.24990        4.07391        0.54955
H          3.00197        3.26832       -0.85330
H          1.57508        4.35804       -1.07361
