27
Pyrazole_H6_Int1_Sub6.log	Energy: -533353.5517347
C          0.55349        1.58624        0.80315
C          0.33099        1.90507       -0.56538
N         -0.50108        2.11993        1.47963
C         -0.92352        2.60726       -0.52702
C          1.30580        1.95934       -1.69876
H         -0.70164        2.00460        2.46505
N         -1.39631        2.70935        0.69241
H         -1.46724        3.03317       -1.36955
O          1.71014       -0.81291       -0.58201
C          2.54371       -1.00961        0.40068
O          2.34578       -0.69043        1.56244
C          3.81747       -1.68819       -0.04671
H          3.58751       -2.72166       -0.34590
H          4.23606       -1.18164       -0.92768
H          4.54368       -1.69519        0.77452
H          1.42756        1.18378        1.32294
Pd        -0.15092       -0.28719       -0.16560
O         -1.21972       -2.11579       -0.29544
C         -2.27751       -1.47376       -0.04616
O         -2.17395       -0.21747        0.14097
C         -3.60746       -2.14311       -0.00191
H         -4.31259       -1.55260        0.59590
H         -3.99602       -2.22008       -1.02916
H         -3.50397       -3.15939        0.39931
H          0.78745        1.82404       -2.65877
H          2.07010        1.17899       -1.61018
H          1.79747        2.94518       -1.71809
