27
Pyrazole_H7_Int1_Sub6.log	Energy: -533357.2359997
C         -0.50784        1.67605       -0.59898
C          0.13428        2.03602        0.61799
C          0.46589        2.01437       -1.60770
N          1.34682        2.47183        0.25116
C         -0.36543        2.05158        2.01377
H          0.36760        1.91970       -2.68859
N          1.57672        2.45891       -1.07671
H          2.11772        2.68299        0.87392
O         -1.79144       -0.89518       -0.71154
C         -2.74429       -0.63558        0.13374
O         -2.62599        0.05482        1.13427
C         -4.05155       -1.29562       -0.23936
H         -3.96764       -2.37792       -0.05882
H         -4.86344       -0.88653        0.37364
H         -4.26483       -1.15962       -1.30847
H         -1.58435        1.58825       -0.72886
Pd         0.05571       -0.39250       -0.25300
O          1.01141       -2.27052        0.07710
C          2.08885       -1.64705        0.26271
O          2.05663       -0.37269        0.19071
C          3.37361       -2.35649        0.52324
H          3.89420       -2.50240       -0.43587
H          4.01873       -1.75033        1.17203
H          3.18040       -3.34025        0.96829
H          0.40743        1.70233        2.71416
H         -1.24501        1.39656        2.07778
H         -0.65424        3.07574        2.30066
