33
Pyrazole_H6_deriv1_Int1_Sub30.log	Energy: -582658.1014685
C          0.04848       -1.18344        1.54531
C          0.63430       -1.42971        0.27867
N          1.04288       -0.69942        2.31140
C          2.01712       -1.04279        0.45399
H          0.22833       -2.07735       -0.49717
H          0.95895       -0.33055        3.24998
N          2.21914       -0.59361        1.66996
C          3.10097       -1.04942       -0.57812
O         -1.88867       -0.80530       -0.91594
C         -2.83253       -1.31042       -0.17287
O         -2.86536       -1.27680        1.04692
C         -3.92777       -1.95453       -0.99138
H         -4.49473       -1.16751       -1.51090
H         -3.49980       -2.60966       -1.76266
H         -4.60069       -2.51811       -0.33448
H         -0.95860       -1.40950        1.90672
Pd        -0.52960        0.36382       -0.09213
O         -1.12685        2.34117       -0.62281
C         -0.08259        2.76539       -0.05961
O          0.68406        1.90640        0.49177
C          0.28093        4.21034       -0.06004
H          0.82868        4.46506        0.85623
H          0.94229        4.40451       -0.91869
H         -0.61914        4.82813       -0.16651
H          4.02543       -0.79030       -0.03761
C          3.26757       -2.42842       -1.21213
H          4.10081       -2.42463       -1.93097
H          2.36039       -2.72615       -1.76242
H          3.47396       -3.19946       -0.45489
C          2.83662        0.02959       -1.63092
H          2.70607        1.01406       -1.15899
H          3.67193        0.08704       -2.34570
H          1.91927       -0.19332       -2.20036
