34
Pyrazole_H6_deriv1_Int1_Sub32.log	Energy: -629818.0593937
C          0.22096       -0.92902        1.61794
C          0.93792       -0.96120        0.39718
N          0.90081       -0.07494        2.40901
C          2.04913       -0.06468        0.62287
H          0.84825       -1.72352       -0.37478
H          0.61984        0.25582        3.32356
N          1.97951        0.46065        1.82377
C          3.13486        0.34868       -0.33232
O         -1.59138       -1.41358       -0.87762
C         -2.32015       -2.19776       -0.13396
O         -2.42866       -2.11877        1.07937
C         -3.05270       -3.24283       -0.94293
H         -3.84913       -2.75127       -1.52161
H         -2.37479       -3.72064       -1.66347
H         -3.49485       -3.98934       -0.27274
H         -0.64145       -1.51817        1.94420
Pd        -0.81780        0.22597       -0.09917
O         -2.09160        1.79491       -0.77108
C         -1.30910        2.61429       -0.21902
O         -0.29665        2.14045        0.39817
C         -1.52116        4.08619       -0.30396
H         -1.15220        4.57651        0.60595
H         -0.94546        4.47453       -1.15843
H         -2.58270        4.30748       -0.46900
H          3.63356        1.20523        0.14353
O          4.16064       -0.61085       -0.46674
H          3.23903       -1.85236       -1.87899
H          3.20661       -2.44635       -0.18774
C          3.80240       -1.87833       -0.92731
C          2.55438        0.79620       -1.66819
H          1.87157        1.64347       -1.50897
H          3.36614        1.10979       -2.34017
H          1.97875       -0.00021       -2.16415
H          4.73513       -2.43222       -1.10331
