24
Pyrazole_H7_Int1_Sub18.log	Energy: -796986.2945987
C         -0.12534       -1.66987        0.49557
C         -1.40709       -1.51540        1.04370
C         -0.36290       -1.65538       -0.92176
N         -2.23044       -1.42119       -0.01175
H         -1.76619       -1.45673        2.06727
H          0.34631       -1.85006       -1.72538
N         -1.66263       -1.50548       -1.20001
Cl        -3.89004       -1.13779        0.09555
O          2.28402       -0.30704       -0.64303
C          3.05554       -0.85289        0.25598
O          2.70898       -1.16405        1.38338
C          4.46476       -1.06284       -0.24721
H          4.95883       -0.08444       -0.34380
H          5.02218       -1.68674        0.46133
H          4.45504       -1.52229       -1.24518
H          0.79211       -1.91615        1.03939
Pd         0.51009        0.37524       -0.13182
O          0.73128        2.48174       -0.15176
C         -0.50183        2.57888        0.09587
O         -1.16302        1.49603        0.22781
C         -1.17870        3.90115        0.19876
H         -1.50963        4.20396       -0.80677
H         -2.06102        3.82843        0.84681
H         -0.47615        4.65699        0.57157
