33
Pyrazole_H7_Int1_Sub13.log	Energy: -582655.4496625
C         -1.01797       -0.46229       -1.27680
C         -0.20140       -1.17305       -2.17918
C         -1.25879       -1.41573       -0.21615
N         -0.00630       -2.36976       -1.63324
H          0.23830       -0.87699       -3.12895
C         -2.15939       -1.24607        0.97108
N         -0.61704       -2.55043       -0.45409
H          0.62868       -3.08694       -1.96505
O         -0.72726        1.73665        0.58079
C         -1.17161        2.62711       -0.26217
O         -0.98443        2.60211       -1.46671
C         -1.96771        3.71791        0.41738
H         -1.30307        4.29579        1.07638
H         -2.40976        4.37962       -0.33672
H         -2.75191        3.28057        1.05156
H         -1.55968        0.45291       -1.51646
Pd         0.57078        0.38996       -0.03564
O          2.37771        0.92668        0.95245
C          2.90961       -0.10485        0.46438
O          2.19216       -0.84116       -0.29235
C          4.31608       -0.48604        0.77790
H          4.30879       -1.18313        1.63013
H          4.77186       -0.99864       -0.07889
H          4.89600        0.40171        1.05851
H         -2.29393       -0.16034        1.09924
C         -3.52131       -1.87889        0.67863
H         -4.21171       -1.71137        1.51928
H         -3.97886       -1.45209       -0.22683
H         -3.41859       -2.96483        0.52857
C         -1.52522       -1.81169        2.23639
H         -0.56891       -1.31153        2.45218
H         -2.19191       -1.66592        3.09932
H         -1.32689       -2.88826        2.12638
