45
Pyrazole_H6_deriv1_Int1_Sub12.log	Energy: -681260.0059132
C          0.47369       -1.05410       -0.93990
C          0.42356        0.24369       -1.51080
N          1.63551       -1.13325       -0.26882
C          1.67690        0.83747       -1.10800
H         -0.20994        0.54790       -2.34334
C          2.09499       -2.20856        0.63064
N          2.35497        0.00387       -0.35679
C          2.17667        2.21360       -1.41955
O         -2.40668       -0.03470       -1.16199
C         -2.81625       -1.26959       -1.21094
O         -2.26908       -2.21584       -0.66430
C         -4.07915       -1.43093       -2.02511
H         -4.92206       -1.00315       -1.46164
H         -4.00483       -0.87715       -2.97103
H         -4.26847       -2.49459       -2.21181
H         -0.21992       -1.88904       -1.04317
Pd        -0.98501        0.42654        0.12899
O         -2.01471        1.06870        1.88522
C         -0.89522        1.33211        2.39912
O          0.14886        1.09293        1.70505
C         -0.77379        1.93395        3.75728
H          0.14158        1.57911        4.24814
H         -0.70186        3.02755        3.65158
H         -1.66059        1.69848        4.35826
H          3.17813        2.27410       -0.96406
C          2.30768        2.42969       -2.92637
H          2.72221        3.42676       -3.13963
H          2.96888        1.67962       -3.38543
H          1.32633        2.36721       -3.42392
C          1.28189        3.27219       -0.77269
H          1.19379        3.10294        0.30996
H          1.68972        4.28055       -0.94263
H          0.26621        3.24320       -1.20025
C          1.18197       -3.41622        0.45851
H          1.52405       -4.21691        1.12887
H          0.13669       -3.18464        0.71160
H          1.21381       -3.80310       -0.57116
C          3.53080       -2.55715        0.24625
H          4.17453       -1.67056        0.32080
H          3.91806       -3.33552        0.91942
H          3.57705       -2.93533       -0.78611
C          2.02458       -1.68599        2.06546
H          2.38626       -2.45520        2.76346
H          2.64063       -0.78311        2.17454
H          0.98990       -1.42413        2.32786
