33
Pyrazole_H6_deriv1_Int1_Sub10.log	Energy: -870945.0879615
C          0.18752       -1.08007        1.26312
C          0.52033       -1.43676       -0.06682
N          1.32857       -0.56751        1.77229
C          1.91321       -1.07044       -0.19645
H         -0.03390       -2.13537       -0.69252
Cl         1.46613        0.17596        3.27621
N          2.35650       -0.52985        0.91516
C          2.77433       -1.18104       -1.41575
O         -2.17728       -0.82456       -0.81656
C         -2.95349       -1.30252        0.11586
O         -2.73740       -1.23866        1.31511
C         -4.19560       -1.95379       -0.44629
H         -4.86150       -1.17009       -0.83781
H         -3.94133       -2.61456       -1.28632
H         -4.71264       -2.51124        0.34356
H         -0.72425       -1.25930        1.83994
Pd        -0.67550        0.35581       -0.32740
O         -1.34224        2.31617       -0.83316
C         -0.20488        2.74479       -0.50031
O          0.64489        1.89298       -0.07209
C          0.16725        4.18109       -0.62722
H          0.84553        4.46885        0.18641
H          0.70041        4.32251       -1.58012
H         -0.73260        4.80797       -0.63088
H          3.79139       -0.91625       -1.08559
C          2.78620       -2.60369       -1.96957
H          3.46207       -2.67370       -2.83503
H          3.12295       -3.32944       -1.21444
H          1.78346       -2.90730       -2.31111
C          2.32598       -0.16466       -2.46882
H          2.31092        0.85217       -2.05080
H          3.00405       -0.18145       -3.33578
H          1.30995       -0.39465       -2.82958
