38
Pyrazole_H6_deriv1_Int1_Sub7.log	Energy: -642015.3956373
C         -0.04215       -1.05162        1.02372
C          0.97797       -1.35289        0.05099
N          0.70452       -0.59842        2.11753
C          2.20176       -0.88721        0.62714
N          0.82276       -1.98863       -1.11991
H          0.32607       -0.24838        2.98743
N          1.97560       -0.45199        1.85796
C          3.56262       -0.79085        0.00484
O         -2.57991       -0.10758       -0.36808
C         -3.20790       -1.14930        0.06480
O         -2.75716       -2.02893        0.79233
C         -4.63470       -1.21427       -0.43950
H         -5.19158       -0.33770       -0.07760
H         -4.64517       -1.16962       -1.53808
H         -5.11606       -2.13549       -0.09094
H         -0.97326       -1.62789        1.18222
Pd        -0.81579        0.67256        0.10212
O         -0.99870        2.73269       -0.62150
C          0.17407        2.90765       -0.21517
O          0.77717        1.92736        0.34484
C          0.89133        4.20533       -0.39508
H          1.55832        4.39211        0.45663
H          1.51034        4.14376       -1.30365
H          0.17147        5.02373       -0.51714
H          4.19598       -0.34455        0.78777
C          4.15177       -2.15565       -0.35295
H          5.17017       -2.04531       -0.75597
H          4.20241       -2.80929        0.53019
H          3.55449       -2.68184       -1.11522
C          3.54701        0.17118       -1.18561
H          3.09999        1.13292       -0.89572
H          4.56658        0.34723       -1.56132
H          2.95478       -0.22413       -2.02823
H          1.59787       -1.93387       -1.76635
C         -0.46686       -2.34817       -1.65038
H         -1.03345       -1.45762       -1.98066
H         -1.06954       -2.84912       -0.87946
H         -0.33398       -3.03268       -2.49778
