27
Pyrazole_H7_Int1_Sub9.log	Energy: -720096.9275793
C         -0.57812       -1.35670        0.22892
C          0.03903       -1.12871        1.48138
C         -1.90881       -0.85713        0.42548
N         -0.91478       -0.55077        2.25259
H          1.01976       -1.44996        1.84860
C         -2.99605       -0.80285       -0.60304
N         -2.07418       -0.36534        1.62750
H         -0.79726       -0.18916        3.19131
O          2.03253       -0.92784       -0.90096
C          2.91345       -1.52306       -0.14621
O          2.91582       -1.51310        1.07493
C          3.97289       -2.23861       -0.94977
H          4.63853       -1.48963       -1.40466
H          4.55684       -2.89467       -0.29364
H          3.51819       -2.81106       -1.76961
H         -0.23527       -2.02352       -0.56042
Pd         0.76487        0.34663       -0.09158
O          1.51495        2.25450       -0.63214
C          0.50708        2.76790       -0.07291
O         -0.32028        1.97309        0.48688
C          0.25918        4.23489       -0.08802
H         -0.33312        4.47843       -0.98372
H         -0.31746        4.53268        0.79669
H          1.21003        4.77929       -0.14325
F         -2.79671        0.20710       -1.45571
F         -4.19187       -0.64808       -0.05555
F         -3.00225       -1.92924       -1.32360
