47
Pyridine_H10_deriv2_Int1_Sub13.log	Energy: -695085.4090547
C         -0.46198       -0.91793        1.62113
C          0.07511       -1.42839        0.41990
C          0.38748       -0.09417        2.39957
C          1.38636       -1.08149       -0.00874
H         -0.49473       -2.18494       -0.11726
N          1.60206        0.20704        2.02527
H          0.03521        0.30618        3.35716
C          2.10999       -0.24027        0.85096
C          1.88253       -1.59606       -1.36828
C          3.51525        0.27793        0.61576
O         -2.66500       -0.96129       -0.37380
C         -3.61560       -1.01088        0.52320
O         -3.58142       -0.43538        1.59524
C         -4.78183       -1.86358        0.08278
H         -4.43029       -2.82841       -0.30830
H         -5.46780       -2.01476        0.92452
H         -5.31056       -1.35251       -0.73562
H         -1.41518       -1.26336        2.02594
Pd        -1.22958        0.34616       -0.05592
O         -1.82336        2.04668       -1.16607
C         -0.73805        2.60451       -0.84115
O          0.06818        1.93771       -0.11355
C         -0.41217        3.99588       -1.25840
H          0.66271        4.08659       -1.46274
H         -1.00535        4.28014       -2.13592
H         -0.65742        4.67661       -0.42869
C          0.82723       -2.47135       -2.05726
H          1.21410       -2.79629       -3.03432
H          0.59727       -3.37988       -1.48008
H         -0.11233       -1.92716       -2.23785
C          2.13674       -0.40253       -2.30567
H          2.91751        0.27652       -1.94156
H          2.44237       -0.76423       -3.29989
H          1.21534        0.18782       -2.42353
C          3.13828       -2.46715       -1.20256
H          3.46781       -2.83941       -2.18516
H          3.98314       -1.93390       -0.74947
H          2.91813       -3.33967       -0.56859
H          3.88757       -0.10041       -0.34183
C          3.50009        1.80495        0.54569
H          4.51508        2.19133        0.36519
H          2.83565        2.15851       -0.25627
H          3.12459        2.22093        1.49158
C          4.44798       -0.22401        1.71730
H          4.50720       -1.32359        1.72477
H          5.46443        0.17306        1.57269
H          4.08020        0.10346        2.70060
