42
Pyridine_H10_deriv1_Int1_Sub19.log	Energy: -958012.4661422
C         -0.90520       -1.57979        0.00605
C         -0.59164       -1.24707       -1.33269
C          0.18679       -1.54692        0.92742
C          0.73133       -0.87453       -1.65675
H         -1.33890       -1.39581       -2.11530
N          1.39582       -1.19982        0.61952
Cl        -0.13806       -2.00556        2.56085
C          1.68763       -0.84238       -0.65549
H          0.99610       -0.61386       -2.68236
C          3.09965       -0.39945       -0.90342
O         -3.23208       -0.05961       -1.13801
C         -4.10010       -0.74684       -0.44179
O         -3.88347       -1.23400        0.65254
C         -5.43161       -0.86943       -1.14447
H         -5.29184       -1.14079       -2.19982
H         -6.05237       -1.61327       -0.63129
H         -5.93708        0.10772       -1.12238
H         -1.86244       -2.01438        0.30688
Pd        -1.56306        0.50488       -0.26143
O         -1.89023        2.54366        0.20269
C         -0.70803        2.60178        0.64299
O         -0.00474        1.54070        0.57096
C         -0.15681        3.84115        1.25442
H          0.93760        3.85028        1.17760
H         -0.59544        4.72620        0.77649
H         -0.43157        3.85498        2.32056
H          3.21111       -0.22313       -1.98797
C          4.10977       -1.47139       -0.47812
H          3.92686       -2.39981       -1.04350
H          3.92780       -1.70779        0.58374
C          5.54559       -0.99930       -0.67228
H          6.24503       -1.77786       -0.32772
H          5.74331       -0.86166       -1.75115
C          5.80722        0.31384        0.05654
H          6.83965        0.65443       -0.12334
H          5.71778        0.14727        1.14509
C          4.81061        1.38677       -0.36742
H          4.97435        1.63465       -1.43223
H          4.98355        2.31809        0.19590
C          3.37259        0.92388       -0.17224
H          3.16287        0.76752        0.89962
H          2.65792        1.68805       -0.51613
