37
Pyridazine_H7_Int1_Sub20.log	Energy: -631173.6186205
C         -0.10058       -1.66376        0.18323
C         -0.19759       -1.49429       -1.21537
C          1.14452       -1.36283        0.76960
N          0.87342       -1.11246       -1.96930
H         -1.06931       -1.83039       -1.78164
C          2.16175       -0.91301       -0.05178
H          1.28502       -1.48691        1.84285
N          1.98976       -0.82603       -1.40147
C          3.54487       -0.50951        0.42724
O         -2.83419       -0.56577       -0.47798
C         -3.35916       -1.08728        0.59935
O         -2.76822       -1.22052        1.65707
C         -4.79505       -1.50660        0.40074
H         -5.42307       -0.60545        0.33521
H         -4.91291       -2.05615       -0.54315
H         -5.12194       -2.11809        1.24999
H         -0.90646       -2.10444        0.77554
Pd        -1.08889        0.31491       -0.26906
O         -1.56903        2.34817        0.04100
C         -0.33411        2.61091        0.05046
O          0.46948        1.63502       -0.11896
C          0.17887        3.98826        0.27896
H          0.45857        4.08790        1.33916
H          1.07793        4.15884       -0.32761
H         -0.59799        4.72689        0.04759
C          3.66673       -0.60587        1.94587
H          4.67387       -0.29026        2.25594
H          2.94297        0.04942        2.45521
H          3.51995       -1.63539        2.30836
C          4.57086       -1.43921       -0.23649
H          4.47849       -1.39455       -1.33053
H          5.59122       -1.13592        0.04446
H          4.42464       -2.48358        0.08096
C          3.79652        0.93848       -0.01795
H          4.80947        1.25076        0.27975
H          3.70364        1.02484       -1.10933
H          3.06261        1.61910        0.43708
