42
Pyridine_H10_Int1_Sub19.log	Energy: -669688.1803076
C         -0.81119       -0.73625        1.87002
C          0.39411       -0.86947        1.14309
C         -0.90615        0.33142        2.80429
C          1.43700        0.07166        1.35814
H          0.56169       -1.75907        0.53112
N          0.06427        1.18927        3.01251
H         -1.82308        0.44905        3.39256
C          1.19818        1.06111        2.29902
C          2.70940        0.03069        0.56102
H          1.97714        1.80541        2.50178
O         -1.53049       -1.65230       -0.85743
C         -2.67997       -2.16381       -0.49919
O         -3.40828       -1.68790        0.35219
C         -3.01917       -3.41973       -1.26590
H         -2.16311       -4.10848       -1.27994
H         -3.89531       -3.90169       -0.81644
H         -3.24101       -3.15284       -2.30997
H         -1.59332       -1.49776        1.84387
Pd        -1.12625        0.14390       -0.16125
O         -1.80822        1.44938       -1.67502
C         -1.35360        2.41936       -1.00518
O         -0.77336        2.14803        0.09649
C         -1.51207        3.82857       -1.45630
H         -0.67153        4.43720       -1.09950
H         -1.59622        3.87080       -2.54925
H         -2.43846        4.23232       -1.01920
H          3.39686        0.76975        1.01143
C          2.45701        0.46775       -0.89125
H          1.97935        1.46054       -0.89545
H          1.72846       -0.22651       -1.34945
C          3.74255        0.47201       -1.70900
H          3.52360        0.75391       -2.75134
H          4.42122        1.24939       -1.31343
C          4.44272       -0.88141       -1.65663
H          5.38913       -0.84672       -2.21965
H          3.81003       -1.63571       -2.15864
C          4.69653       -1.31952       -0.21833
H          5.41707       -0.62636        0.25236
H          5.16672       -2.31562       -0.19539
C          3.40913       -1.33214        0.59857
H          2.73199       -2.10204        0.18748
H          3.61223       -1.61899        1.64299
