50
Pyridine_H10_deriv2_Int1_Sub12.log	Energy: -719720.4186663
C         -0.68053       -0.72922        1.72748
C         -0.13438       -1.37597        0.59910
C          0.23837        0.02967        2.48662
C          1.21087       -1.18038        0.16333
H         -0.74313       -2.14156        0.12435
N          1.44217        0.27138        2.05415
H         -0.03893        0.42147        3.47234
C          1.92717       -0.18209        0.87108
C          1.63506       -2.08447       -1.01888
C          3.25113        0.54958        0.53768
O         -2.78006       -0.86449       -0.38926
C         -3.77708       -0.82470        0.45672
O         -3.77826       -0.18517        1.49221
C         -4.94954       -1.66367        0.00598
H         -4.61443       -2.66432       -0.30043
H         -5.68600       -1.73427        0.81504
H         -5.41229       -1.19091       -0.87314
H         -1.67240       -0.96808        2.11688
Pd        -1.30927        0.40790       -0.08604
O         -1.77466        2.04204       -1.34807
C         -0.68654        2.58361       -1.00747
O          0.05189        1.94771       -0.18601
C         -0.28176        3.92450       -1.51219
H          0.80615        3.96223       -1.65539
H         -0.81009        4.15707       -2.44464
H         -0.54968        4.67829       -0.75581
C          0.81085       -3.38953       -1.03059
H          1.24513       -4.07153       -1.77608
H          0.83585       -3.90102       -0.05596
H         -0.23794       -3.23744       -1.32213
C          1.34499       -1.38051       -2.35607
H          1.91016       -0.45155       -2.48091
H          1.59382       -2.04948       -3.19527
H          0.27481       -1.13109       -2.42855
C          3.09167       -2.55249       -0.92360
H          3.30725       -3.24103       -1.75451
H          3.82353       -1.74398       -0.97617
H          3.26039       -3.09999        0.01651
C          3.46888        0.81490       -0.95477
H          4.34226        1.47325       -1.07486
H          3.66001       -0.07618       -1.55927
H          2.59545        1.33711       -1.37359
C          3.21037        1.94859        1.18652
H          3.17079        1.89255        2.27951
H          4.11805        2.49798        0.89209
H          2.32907        2.50904        0.84379
C          4.43132       -0.20060        1.17609
H          5.36017        0.37337        1.03048
H          4.26231       -0.30210        2.25863
H          4.58468       -1.20482        0.76283
