37
Pyridazine_H7_deriv1_Int1_Sub21.log	Energy: -631174.1592199
C          0.00877       -1.52474       -0.19779
C          0.10397       -1.32011        1.19793
C         -1.15866       -1.04536       -0.82080
N         -0.90021       -0.73825        1.91407
H          0.89804       -1.77413        1.79548
C         -2.09350       -0.39362       -0.03792
H         -1.31619       -1.18047       -1.89267
N         -1.94157       -0.28257        1.31172
C         -3.34909        0.20986       -0.57981
O          2.87432       -0.83147        0.49912
C          3.32777       -1.48484       -0.53775
O          2.73805       -1.58660       -1.59966
C          4.68101       -2.10381       -0.28648
H          5.43713       -1.30504       -0.25437
H          4.70160       -2.61215        0.68718
H          4.92314       -2.80319       -1.09533
H          0.74504       -2.11146       -0.75309
Pd         1.28628        0.29346        0.21902
O          2.07242        2.21918       -0.14005
C          0.89105        2.66535       -0.17431
O         -0.05301        1.82503       -0.00624
C          0.60263        4.11155       -0.36705
H         -0.37836        4.24327       -0.84050
H          0.57856        4.59677        0.62105
H          1.39588        4.57973       -0.96307
C         -4.62654       -0.41963       -0.00815
H         -3.34945        0.13812       -1.67983
H         -3.32961        1.28212       -0.32363
H         -4.54079       -0.35021        1.09007
C         -5.85135        0.36954       -0.45030
H         -6.77130       -0.05085       -0.01609
H         -5.78474        1.42412       -0.14115
H         -5.96232        0.34798       -1.54751
C         -4.74325       -1.89062       -0.38766
H         -3.87794       -2.47440       -0.03718
H         -5.64572       -2.34142        0.05236
H         -4.81056       -2.01301       -1.48216
