29
Pyridazine_H7_Int1_Sub24.log	Energy: -604393.2849312
C          0.06757       -1.73963        0.50367
C          0.07282       -1.63606       -0.91376
C          1.28112       -1.55306        1.16346
N          1.21815       -1.41597       -1.61135
H         -0.78933       -1.92784       -1.51755
C          2.37928       -1.23874        0.36645
H          1.38065       -1.62630        2.24679
N          2.32351       -1.20237       -0.98201
O          3.54237       -0.99317        0.94190
O         -2.47563       -0.27409       -0.61187
C         -3.17085       -0.74987        0.38574
O         -2.71683       -1.00361        1.48856
C         -4.62543       -0.94892        0.03425
H         -5.11044        0.03575       -0.04360
H         -4.72591       -1.44044       -0.94307
H         -5.11773       -1.53706        0.81770
H         -0.84061       -2.01162        1.04910
Pd        -0.64733        0.34821       -0.24576
O         -0.84369        2.44103        0.00932
C          0.41175        2.51642        0.10966
O          1.07015        1.42672        0.02353
C          1.11088        3.81768        0.28680
H          2.03580        3.67538        0.86000
H          1.37754        4.20945       -0.70705
H          0.44844        4.54014        0.77928
C          4.63345       -0.60994        0.12012
H          4.89333       -1.40551       -0.59242
H          4.39156        0.30020       -0.44734
H          5.46767       -0.42376        0.80663
