41
Pyridine_H10_deriv2_Int1_Sub14.log	Energy: -645786.0656929
C         -0.27278       -0.99529        1.62806
C          0.48218       -1.35152        0.48976
C          0.35962       -0.15360        2.57434
C          1.79225       -0.83992        0.28614
H          0.08313       -2.11699       -0.17386
N          1.57189        0.30689        2.40593
H         -0.16755        0.13029        3.49230
C          2.28581        0.00643        1.29283
C          2.52751       -1.17912       -1.01832
C          3.63960        0.65669        1.29870
O         -2.15374       -1.09368       -0.67264
C         -3.21218       -1.30378        0.06635
O         -3.39264       -0.81265        1.16542
C         -4.20685       -2.22681       -0.59679
H         -3.70286       -3.11889       -0.99376
H         -4.98455       -2.51021        0.12212
H         -4.66664       -1.70483       -1.44925
H         -1.22956       -1.46555        1.86282
Pd        -0.92783        0.31829       -0.05951
O         -1.52922        2.03573       -1.13796
C         -0.56460        2.66495       -0.61922
O          0.19213        2.02212        0.17908
C         -0.32807        4.10836       -0.89582
H          0.74788        4.32445       -0.87764
H         -0.77142        4.38959       -1.85884
H         -0.80852        4.69991       -0.10124
C          1.77901       -2.24880       -1.82392
H          2.34176       -2.46433       -2.74411
H          1.68375       -3.19379       -1.26696
H          0.77389       -1.91878       -2.12628
C          2.58513        0.08286       -1.89708
H          3.08917        0.92479       -1.40494
H          3.12110       -0.13323       -2.83471
H          1.56733        0.41491       -2.15239
C          3.93491       -1.73207       -0.74871
H          4.39841       -2.04054       -1.69843
H          4.60531       -1.00318       -0.28003
H          3.88627       -2.61715       -0.09570
H          3.57992        1.55410        1.92630
H          4.00458        0.93215        0.30403
H          4.38394       -0.01472        1.75743
