44
Pyridazine_H7_deriv1_Int1_Sub19.log	Energy: -704373.8879497
C         -0.60377       -1.43030        0.21333
C         -0.71626       -1.24337       -1.18358
C          0.50093       -0.82159        0.83763
N          0.21953       -0.55635       -1.89932
H         -1.45240       -1.78576       -1.78160
C          1.36051       -0.07353        0.05470
H          0.66903       -0.93406        1.91050
N          1.20174        0.01456       -1.29592
C          2.53996        0.66674        0.59818
O         -3.52745       -1.06094       -0.50211
C         -3.90964       -1.76228        0.53209
O         -3.31659       -1.80034        1.59633
C         -5.18516       -2.52670        0.27439
H         -6.02469       -1.81629        0.23849
H         -5.14477       -3.03376       -0.69932
H         -5.35244       -3.24897        1.08207
H         -1.27256       -2.09276        0.76887
Pd        -2.07440        0.23269       -0.21719
O         -3.07072        2.06055        0.13230
C         -1.94616        2.63479        0.17063
O         -0.91410        1.90368        0.00988
C         -1.82042        4.10459        0.35974
H         -0.86418        4.34498        0.84107
H         -1.84062        4.58621       -0.63021
H         -2.66571        4.48462        0.94686
C          3.87404        0.18508        0.02362
H          2.54901        0.59238        1.69765
H          2.40183        1.73108        0.34488
H          3.78491        0.24253       -1.07659
C          4.17103       -1.26713        0.39720
H          3.35999       -1.92481        0.04259
H          4.18357       -1.35545        1.50052
C          5.50924       -1.73715       -0.16214
H          5.70834       -2.77515        0.14985
H          5.45261       -1.75030       -1.26543
C          6.64845       -0.82110        0.27082
H          7.59987       -1.15220       -0.17593
H          6.77722       -0.89539        1.36620
C          6.36142        0.62927       -0.10204
H          6.34429        0.72402       -1.20268
H          7.17132        1.28687        0.25297
C          5.02167        1.09547        0.45696
H          5.07054        1.10827        1.56228
H          4.81421        2.13236        0.14386
