43
Pyridine_H10_deriv2_Int1_Sub15.log	Energy: -680507.4412179
C         -0.44842       -1.60352       -0.09042
C          0.74690       -1.46017       -0.86071
C         -0.35538       -1.30506        1.29302
C          1.90541       -0.96068       -0.32075
H          0.70730       -1.73665       -1.91380
N          0.75925       -0.85761        1.85475
H         -1.22775       -1.48230        1.92948
C          1.84737       -0.66655        1.10125
C          3.14654       -0.70190       -1.18114
N          2.91472       -0.19251        1.77170
O         -3.03053       -0.42173       -0.72697
C         -3.73076       -1.13936        0.10461
O         -3.35394       -1.53258        1.19437
C         -5.11542       -1.43999       -0.42722
H         -5.06402       -1.78894       -1.46785
H         -5.60247       -2.18882        0.20869
H         -5.70905       -0.51349       -0.42361
H         -1.27264       -2.21541       -0.45968
Pd        -1.30226        0.36416       -0.21594
O         -1.63208        2.48475       -0.44455
C         -0.42362        2.66456       -0.14982
O          0.29555        1.63742        0.08623
C          0.15990        4.03476       -0.04723
H          1.25537        3.99307       -0.08582
H         -0.23633        4.67193       -0.84879
H         -0.14662        4.47645        0.91336
C          2.89619       -1.09238       -2.64143
H          3.80304       -0.89366       -3.23163
H          2.66153       -2.16220       -2.74750
H          2.07647       -0.50898       -3.08648
C          3.47506        0.80313       -1.18223
H          3.72918        1.20906       -0.19316
H          4.32783        1.00131       -1.84994
H          2.60621        1.37535       -1.53770
C          4.34170       -1.54436       -0.70067
H          5.22496       -1.33447       -1.32362
H          4.62673       -1.36952        0.34594
H          4.11092       -2.61660       -0.79018
H          3.74910        0.02588        1.25360
C          2.85610        0.16651        3.16587
H          3.84240        0.53694        3.47412
H          2.58354       -0.69863        3.78737
H          2.09924        0.94635        3.34381
