37
Pyridazine_H7_deriv1_Int1_Sub13.log	Energy: -631179.2835312
C         -0.20626       -1.34969        0.85329
C         -0.23833       -0.58977        2.04344
C         -1.39221       -1.43104        0.08838
N         -1.37817       -0.02203        2.50479
H          0.61446       -0.56119        2.72657
C         -2.49733       -0.75173        0.60925
C         -1.41992       -2.14194       -1.23920
N         -2.45972       -0.11117        1.80401
C         -3.81803       -0.69318       -0.08696
O          2.38318       -0.00772        0.79021
C          2.90200       -0.80421       -0.10305
O          2.28950       -1.24919       -1.06152
C          4.35368       -1.11821        0.15807
H          4.95792       -0.23577       -0.10131
H          4.52327       -1.33034        1.22233
H          4.66684       -1.96568       -0.46310
H          0.65788       -1.96287        0.59719
Pd         0.58967        0.67115        0.34605
O          0.94278        2.45592       -0.72608
C         -0.30631        2.63048       -0.79266
O         -1.04701        1.74689       -0.24750
C         -0.90121        3.82605       -1.44717
H         -1.87187        3.57017       -1.89071
H         -1.06891        4.59665       -0.67883
H         -0.21438        4.22787       -2.20211
H         -4.52241       -0.13843        0.54426
H         -4.22450       -1.69779       -0.28164
H         -3.72889       -0.17916       -1.05615
H         -2.45855       -2.46834       -1.41069
C         -1.04339       -1.14541       -2.34583
H         -1.17620       -1.60817       -3.33553
H         -1.65749       -0.23398       -2.30261
H          0.01410       -0.85753       -2.23670
C         -0.51220       -3.36727       -1.28826
H         -0.72225       -4.06527       -0.46323
H         -0.66770       -3.90757       -2.23374
H          0.54843       -3.07507       -1.25085
