34
Pyridazine_H7_Int1_Sub5.log	Energy: -606524.1143848
C          1.10793        0.47368        1.23933
C          1.20397        1.26422        0.06366
C          0.30050        0.97153        2.28277
N          0.58176        2.47316       -0.01587
C          2.19503        0.96960       -1.03678
C         -0.32038        2.18687        2.07572
H          0.18975        0.41509        3.21531
N         -0.14558        2.91642        0.95616
H         -0.97030        2.64046        2.82746
O          0.83080       -1.80432       -0.49640
C          0.97980       -2.68980        0.45410
O          0.51745       -2.56262        1.57469
C          1.78193       -3.89114        0.02106
H          1.18150       -4.48711       -0.68246
H          2.69189       -3.57925       -0.51006
H          2.03407       -4.50285        0.89525
H          1.75420       -0.38981        1.40042
Pd        -0.46360       -0.38368       -0.06046
O         -2.25014       -1.06668       -0.95209
C         -2.81205        0.00174       -0.57978
O         -2.09895        0.83446        0.07035
C         -4.23053        0.30270       -0.90866
H         -4.66107        0.97209       -0.15348
H         -4.26107        0.81462       -1.88299
H         -4.80647       -0.62774       -0.98821
H          2.49909       -0.08166       -0.91849
C          1.57597        1.14878       -2.41788
H          2.32913        0.96878       -3.19908
H          0.74768        0.44123       -2.57663
H          1.18308        2.16928       -2.53310
C          3.41583        1.87122       -0.84059
H          3.87536        1.72304        0.14884
H          4.17694        1.65327       -1.60482
H          3.12715        2.92956       -0.92892
