29
Pyridine_H10_Int1_Sub22.log	Energy: -547187.7213397
C          0.08954       -1.58858        0.96806
C          0.47770       -1.79093       -0.37623
C          1.11603       -1.34137        1.92125
C          1.85657       -1.72592       -0.71486
H         -0.25530       -2.13260       -1.11212
N          2.38776       -1.28509        1.60651
H          0.84679       -1.19938        2.97389
C          2.74113       -1.46599        0.32006
C          2.31057       -1.93085       -2.12443
H          3.81510       -1.40984        0.10823
O         -1.98964       -0.34701       -0.76894
C         -2.93880       -0.46358        0.12319
O         -2.77153       -0.36179        1.32489
C         -4.28779       -0.73392       -0.49950
H         -4.21447       -1.52557       -1.25785
H         -5.00604       -1.01083        0.28116
H         -4.63413        0.17702       -1.01031
H         -0.93377       -1.75853        1.31079
Pd        -0.25413        0.32352       -0.12658
O         -0.34616        2.40107       -0.48000
C          0.84390        2.49651       -0.06459
O          1.42680        1.42040        0.28831
C          1.53219        3.81111        0.04587
H          2.61871        3.67969       -0.03070
H          1.16071        4.49862       -0.72437
H          1.30288        4.24242        1.03263
H          1.94250       -2.88760       -2.52677
H          3.40670       -1.92673       -2.19595
H          1.92388       -1.13333       -2.77858
