34
Pyridazine_H7_Int1_Sub21.log	Energy: -606523.9323669
C         -0.00166       -1.67965       -0.34955
C          0.00299       -1.56566        1.05955
C         -1.21953       -1.39376       -0.99502
N         -1.11922       -1.24062        1.76330
H          0.84890       -1.90174        1.66392
C         -2.29539       -1.01165       -0.21584
H         -1.30935       -1.47384       -2.08039
N         -2.21108       -0.96350        1.14203
C         -3.63979       -0.64607       -0.78602
O          2.65307       -0.52884        0.54151
C          3.26278       -0.99991       -0.51413
O          2.74580       -1.11866       -1.61161
C          4.69616       -1.38005       -0.23485
H          5.28866       -0.46201       -0.10465
H          4.77193       -1.95291        0.69943
H          5.09631       -1.95593       -1.07760
H          0.85492       -2.06820       -0.90655
Pd         0.89765        0.30756        0.25146
O          1.33242        2.36482        0.05503
C          0.09280        2.59171       -0.02387
O         -0.68822        1.58623        0.05318
C         -0.44739        3.96197       -0.23042
H         -0.61077        4.11605       -1.30834
H         -1.41299        4.06665        0.28097
H          0.27062        4.71078        0.12553
H         -3.56540       -0.75235       -1.88148
C         -4.71716       -1.59973       -0.27120
H         -5.70029       -1.32809       -0.68422
H         -4.50309       -2.64167       -0.55373
H         -4.77275       -1.54808        0.82622
C         -3.97075        0.80968       -0.45697
H         -3.19808        1.48882       -0.84355
H         -4.94380        1.08853       -0.88892
H         -4.01775        0.94518        0.63388
