35
Pyridine_H10_deriv1_Int1_Sub13.log	Energy: -884811.1104937
C         -0.06439        0.00672        1.61704
C         -0.88496        0.94384        0.94966
C         -0.63530       -1.27845        1.86418
C         -2.19372        0.56724        0.53808
H         -0.55586        1.98333        0.87978
N         -1.83572       -1.61783        1.50934
Cl         0.33685       -2.43970        2.69354
C         -2.59398       -0.71876        0.85228
C         -3.07386        1.50700       -0.24497
H         -3.59540       -1.06059        0.56820
O          1.64774        1.66007       -0.20716
C          2.70756        1.53602        0.55087
O          2.96278        0.55451        1.22326
C          3.59962        2.75320        0.49843
H          3.01065        3.67210        0.62506
H          4.37118        2.67867        1.27366
H          4.07643        2.80462       -0.49180
H          0.88952        0.27470        2.07769
Pd         0.56150        0.04665       -0.51039
O          1.24807       -0.69069       -2.36498
C          0.36219       -1.58964       -2.30353
O         -0.41260       -1.57687       -1.29089
C          0.23866       -2.64555       -3.34371
H         -0.80920       -2.95530       -3.44582
H          0.64156       -2.28788       -4.29917
H          0.82426       -3.52060       -3.02171
H         -4.06277        1.02293       -0.31786
C         -3.25940        2.85208        0.45390
H         -3.96269        3.48383       -0.10929
H         -3.65436        2.72616        1.47301
H         -2.30969        3.40602        0.52308
C         -2.53091        1.67877       -1.66614
H         -2.41104        0.70469       -2.16323
H         -3.21020        2.29800       -2.27195
H         -1.54493        2.17174       -1.65562
