38
Pyridine_H10_Int1_Sub20.log	Energy: -621136.4136198
C         -0.15420       -1.08559        1.59992
C          0.67000       -1.33800        0.47780
C          0.36772       -0.26624        2.63307
C          1.95511       -0.74029        0.40769
H          0.35707       -2.08215       -0.25511
N          1.56621        0.26858        2.58113
H         -0.23802       -0.06900        3.52439
C          2.32419        0.04410        1.49437
C          2.86244       -0.88648       -0.80930
H          3.30418        0.53253        1.50452
O         -1.88731       -1.14723       -0.83489
C         -2.97002       -1.46623       -0.17380
O         -3.23682       -1.06376        0.94367
C         -3.87219       -2.39285       -0.95336
H         -3.29670       -3.22598       -1.38009
H         -4.66927       -2.76805       -0.30082
H         -4.31535       -1.83773       -1.79361
H         -1.09993       -1.61019        1.75133
Pd        -0.78691        0.28843       -0.06024
O         -1.46200        2.03687       -1.03361
C         -0.56978        2.68936       -0.42137
O          0.19748        2.03783        0.35985
C         -0.43014        4.16312       -0.57219
H          0.62380        4.45385       -0.47580
H         -0.84416        4.48859       -1.53435
H         -0.99486        4.65188        0.23675
C          2.30936       -1.90590       -1.80632
H          2.98925       -1.98606       -2.66752
H          2.22027       -2.90861       -1.36018
H          1.32197       -1.60951       -2.19230
C          2.94617        0.48311       -1.50302
H          3.34958        1.25375       -0.82980
H          3.59847        0.42373       -2.38853
H          1.94881        0.81596       -1.82848
C          4.26311       -1.33506       -0.37146
H          4.91686       -1.44274       -1.25078
H          4.73731       -0.61024        0.30593
H          4.22368       -2.30596        0.14564
