30
Pyridine_H10_deriv1_Int1_Sub8.log	Energy: -882676.5679837
C         -0.50845       -1.34712       -0.21762
C          0.50528       -1.89301       -1.06543
C         -0.33440       -1.57349        1.18305
C          1.62218       -2.49579       -0.47284
O          0.45692       -1.85354       -2.37951
N          0.72004       -2.12047        1.73552
Cl        -1.64785       -1.17494        2.23495
C          1.67886       -2.55976        0.90793
H          2.42184       -2.88773       -1.10071
H          2.55243       -3.00925        1.39151
O         -1.57039        1.44805        0.24617
C         -2.63771        1.14891       -0.42335
O         -2.72940        0.28457       -1.28562
C         -3.82920        1.97721       -0.00044
H         -3.55035        3.03390        0.10609
H         -4.64202        1.85777       -0.72645
H         -4.16712        1.62416        0.98585
H         -1.49377       -1.07118       -0.62151
Pd         0.23594        0.69698        0.04051
O          1.40670        2.45943        0.12766
C          2.43977        1.73701        0.09803
O          2.27135        0.47511        0.01272
C          3.80762        2.31670        0.19322
H          4.52529        1.68809       -0.34901
H          3.81153        3.34359       -0.19269
H          4.10353        2.34230        1.25347
C         -0.63897       -1.22372       -3.02427
H         -1.57939       -1.75495       -2.81665
H         -0.75649       -0.18482       -2.68060
H         -0.41673       -1.25633       -4.09642
