35
Pyridine_H10_Int1_Sub13.log	Energy: -596489.8772868
C         -0.47057       -1.39721        0.69303
C         -0.17212       -0.86081        1.96618
C         -1.78527       -1.19087        0.15438
C         -1.18006       -0.13698        2.64295
H          0.76589       -1.11941        2.46279
N         -2.70120       -0.51584        0.81433
C         -2.11234       -1.73937       -1.21213
C         -2.40398        0.00034        2.02254
H         -0.99811        0.28708        3.63142
H         -3.21361        0.54712        2.51779
O          2.33875       -0.51673        0.56727
C          2.68790       -1.32350       -0.39848
O          1.97226       -1.63163       -1.33583
C          4.09788       -1.84036       -0.24321
H          4.28380       -2.16250        0.79048
H          4.26865       -2.66617       -0.94386
H          4.80179       -1.02370       -0.46344
H          0.20006       -2.10297        0.19702
Pd         0.65060        0.46587        0.31904
O          1.22457        2.27250       -0.61356
C          0.01583        2.63900       -0.58329
O         -0.82244        1.84607       -0.04221
C         -0.43086        3.92357       -1.18713
H         -1.30460        4.31293       -0.64941
H          0.39111        4.65001       -1.18575
H         -0.72595        3.73286       -2.23069
H         -1.74753       -2.78317       -1.22662
C         -3.60549       -1.73203       -1.49613
H         -3.80573       -2.18729       -2.47743
H         -4.16633       -2.28738       -0.73070
H         -3.99409       -0.70364       -1.50002
C         -1.32236       -0.96783       -2.27833
H         -0.23618       -1.05723       -2.12276
H         -1.55774       -1.35984       -3.27949
H         -1.59731        0.09858       -2.25272
