30
Pyridine_H10_deriv1_Int1_Sub24.log	Energy: -882683.3170614
C         -0.04013       -1.52710       -0.16413
C          0.16029       -1.16495       -1.52513
C          1.12388       -1.50018        0.65700
C          1.42229       -0.76016       -1.96306
H         -0.66275       -1.28187       -2.23348
N          2.29808       -1.10918        0.25501
Cl         0.97142       -2.01943        2.29222
C          2.45127       -0.72062       -1.01855
H          1.61667       -0.46660       -2.99381
O          3.64220       -0.29444       -1.40640
O         -2.52797       -0.06255       -0.87176
C         -3.27551       -0.84523       -0.14025
O         -2.90827       -1.42041        0.86851
C         -4.68215       -0.96287       -0.68016
H         -4.66957       -1.13428       -1.76526
H         -5.20906       -1.77469       -0.16500
H         -5.21101       -0.01381       -0.50578
H         -0.95071       -2.01032        0.20176
Pd        -0.77626        0.52935       -0.19600
O         -1.06583        2.57820        0.27800
C          0.15985        2.65078        0.56622
O          0.86010        1.59287        0.42985
C          0.77322        3.90576        1.08135
H          1.82841        3.96196        0.78526
H          0.21455        4.77766        0.71937
H          0.72424        3.89247        2.18122
C          4.67275       -0.20992       -0.43797
H          4.38201        0.46158        0.38303
H          4.90206       -1.19865       -0.01486
H          5.54619        0.18858       -0.96706
