28
Pyridazine_H7_Int1_Sub6.log	Energy: -557223.8642574
C          0.33669        1.72113        0.58493
C         -0.22469        1.91841       -0.70489
C         -0.55393        1.71356        1.67783
N         -1.56491        2.11936       -0.86152
C          0.60622        2.15677       -1.92413
C         -1.89341        1.90149        1.40248
H         -0.18433        1.57495        2.69552
N         -2.36072        2.11882        0.15773
H         -2.65138        1.90400        2.18912
O          1.95875       -0.33068       -0.61697
C          2.75824       -0.47056        0.40886
O          2.38304       -0.42516        1.56748
C          4.19487       -0.69924        0.01202
H          4.28977       -1.70686       -0.41971
H          4.50348        0.01722       -0.76179
H          4.84038       -0.61795        0.89445
H          1.41447        1.74374        0.74929
Pd         0.04678       -0.35487       -0.13750
O         -0.50172       -2.37104       -0.41733
C         -1.68832       -2.06266       -0.11215
O         -1.91201       -0.84174        0.17728
C         -2.78946       -3.06164       -0.11987
H         -3.57560       -2.76465        0.58547
H         -3.22465       -3.09272       -1.13079
H         -2.39820       -4.05841        0.11919
H          0.05904        1.82208       -2.81493
H          1.57184        1.64062       -1.85881
H          0.78107        3.24002       -2.02967
