31
Pyridazine_H7_deriv1_Int1_Sub6.log	Energy: -581878.5404568
C         -0.04176       -1.73669        0.35585
C          0.32278       -1.71453       -1.01601
C          0.99078       -1.58344        1.30077
N          1.63190       -1.60309       -1.37815
C         -0.62445       -2.06178       -2.11935
C          2.28374       -1.41033        0.83269
H          0.76542       -1.60232        2.36889
N          2.56078       -1.46576       -0.49302
C          3.44916       -1.14887        1.72564
O         -2.23666       -0.02302       -0.40612
C         -2.88043       -0.14088        0.72642
O         -2.33322       -0.17956        1.81446
C         -4.37609       -0.22012        0.54897
H         -4.75107        0.76440        0.23156
H         -4.63628       -0.93810       -0.24112
H         -4.84712       -0.50191        1.49802
H         -1.04490       -2.01992        0.67645
Pd        -0.32341        0.39580       -0.19312
O         -0.26472        2.50297       -0.30360
C          0.99254        2.44782       -0.19964
O          1.51569        1.29038       -0.09256
C          1.83928        3.67016       -0.23434
H          2.77592        3.49943        0.31087
H          2.08496        3.89422       -1.28396
H          1.28931        4.52375        0.18131
H          4.34687       -1.63863        1.32548
H          3.26403       -1.48773        2.75375
H          3.64721       -0.06508        1.74968
H         -0.31545       -1.55687       -3.04381
H         -1.65437       -1.78255       -1.86582
H         -0.57862       -3.14770       -2.30294
