26
Pyridine_H10_Int1_Sub2.log	Energy: -810854.0455744
C          0.12361        1.56889        0.27418
C         -1.10711        1.97791       -0.30985
C          0.06999        1.02761        1.58480
C         -2.27657        1.80255        0.39198
Cl        -1.10088        2.68549       -1.87453
N         -1.07891        0.87802        2.27984
H          1.01834        0.85544        2.10256
C         -2.19443        1.24509        1.68863
H         -3.23807        2.09416       -0.03137
H         -3.11978        1.11637        2.26233
O          2.14071       -0.61516       -0.43700
C          3.08746        0.09408        0.10814
O          2.93020        0.97644        0.93363
C          4.45348       -0.30290       -0.40416
H          4.46853       -0.27991       -1.50284
H          5.21191        0.37486        0.00468
H          4.67111       -1.33672       -0.09825
H          1.08397        1.88748       -0.13424
Pd         0.22983       -0.61247       -0.00914
O         -0.24702       -2.59035       -0.61779
C         -1.45204       -2.35570       -0.33120
O         -1.73060       -1.19013        0.10886
C         -2.51073       -3.39303       -0.46137
H         -3.48271       -2.92279       -0.65665
H         -2.24878       -4.10317       -1.25551
H         -2.57770       -3.94487        0.48910
