29
Pyridine_H10_Int1_Sub14.log	Energy: -547189.9857748
C         -0.11864       -1.76572       -0.22279
C          0.38389       -1.48379       -1.51282
C          0.80993       -2.04541        0.83260
C          1.77953       -1.51021       -1.70423
H         -0.30236       -1.37385       -2.35622
N          2.11251       -2.05399        0.62361
C          0.28679       -2.34171        2.19884
C          2.57727       -1.80187       -0.61333
H          2.21794       -1.30889       -2.68251
H          3.66608       -1.83913       -0.72713
O         -2.02047        0.27343       -0.83653
C         -2.82764        0.02407        0.16004
O         -2.45608       -0.27808        1.28171
C         -4.28335        0.15813       -0.21390
H         -4.48657       -0.33539       -1.17417
H         -4.91017       -0.26459        0.58014
H         -4.52162        1.22533       -0.33729
H         -1.17854       -1.95768       -0.05391
Pd        -0.12890        0.42646       -0.30948
O          0.13545        2.48635        0.08188
C          1.35101        2.25380        0.33477
O          1.75259        1.05093        0.21422
C          2.27663        3.32633        0.79110
H          3.30847        3.08492        0.50684
H          1.96803        4.29428        0.37680
H          2.22475        3.38768        1.88920
H         -0.05456       -3.38945        2.25029
H         -0.57718       -1.70008        2.42612
H          1.08300       -2.20513        2.94065
