31
Pyridine_H10_deriv1_Int1_Sub7.log	Energy: -870228.8563782
C         -0.25721       -1.34526       -0.66019
C         -0.27333       -1.92447        0.66031
C         -1.52932       -1.10051       -1.27078
C         -1.54207       -2.01336        1.30061
N          0.86671       -2.37174        1.20927
N         -2.67947       -1.21908       -0.68359
Cl        -1.51479       -0.58683       -2.91821
C         -2.66692       -1.65508        0.59513
H         -1.63212       -2.37748        2.32311
H         -3.64819       -1.72717        1.07532
O          2.10443       -0.15371        0.16029
C          2.81222        0.34937       -0.82611
O          2.34727        1.08313       -1.67341
C          4.26056       -0.07465       -0.79842
H          4.33824       -1.17203       -0.79361
H          4.78321        0.33311       -1.67142
H          4.73472        0.29136        0.12419
H          0.60475       -1.50528       -1.31053
Pd         0.23361        0.55298        0.20661
O          0.28251        2.52153        1.04577
C         -0.97093        2.54449        0.93623
O         -1.54447        1.49598        0.48475
C         -1.77368        3.75201        1.27689
H         -2.76946        3.45876        1.63303
H         -1.24837        4.35874        2.02470
H         -1.89970        4.35433        0.36391
H          1.70026       -1.94960        0.78930
C          0.97057       -2.75759        2.59263
H          1.99713       -3.09081        2.78941
H          0.29792       -3.59824        2.81927
H          0.73874       -1.92591        3.28220
