29
Pyridine_H10_deriv1_Int1_Sub14.log	Energy: -835510.7680552
C         -0.32220       -1.55008       -0.13577
C         -0.36523       -1.30999        1.25587
C         -1.55726       -1.42216       -0.84073
C         -1.59380       -0.94074        1.87200
H          0.50780       -1.54685        1.86967
N         -2.68078       -1.09657       -0.28112
Cl        -1.54319       -1.72914       -2.54001
C         -2.69850       -0.85245        1.04375
C         -1.66536       -0.67428        3.34103
H         -3.67352       -0.58030        1.46223
O          2.22918       -0.17150        0.73414
C          2.94285       -0.81812       -0.15141
O          2.52559       -1.21274       -1.22454
C          4.37027       -1.02091        0.29843
H          4.40475       -1.37657        1.33732
H          4.87070       -1.73017       -0.37125
H          4.89440       -0.05394        0.26635
H          0.55519       -1.96874       -0.63714
Pd         0.45709        0.49641        0.19773
O          0.79887        2.53412       -0.22519
C         -0.43924        2.66679       -0.44298
O         -1.17213        1.63603       -0.28526
C         -1.02313        3.95602       -0.89991
H         -2.06599        4.03916       -0.56908
H         -0.42161        4.79654       -0.53214
H         -1.00799        3.97314       -2.00077
H         -1.29982       -1.53667        3.92039
H         -2.69492       -0.46002        3.65835
H         -1.03809        0.18927        3.61344
