29
Pyridine_H10_deriv1_Int1_Sub9.log	Energy: -1022250.9080550
C          0.15739        0.06546        1.59452
C         -0.74535        0.90478        0.90892
C         -0.31364       -1.24597        1.92484
C         -2.02636        0.39032        0.57695
H         -0.52073        1.96587        0.77653
N         -1.49393       -1.69860        1.62884
Cl         0.76267       -2.27884        2.78119
C         -2.34041       -0.89779        0.95296
C         -2.98479        1.24935       -0.19420
H         -3.32154       -1.31889        0.71812
O          1.69928        1.73527       -0.37990
C          2.73914        1.79034        0.41263
O          3.04000        0.92993        1.21998
C          3.54743        3.04912        0.21301
H          2.89188        3.92887        0.15857
H          4.27310        3.15424        1.02800
H          4.08139        2.97937       -0.74657
H          1.10424        0.42483        2.00877
Pd         0.72507        0.03429       -0.53699
O          1.41088       -0.77272       -2.35842
C          0.59287       -1.72506       -2.21306
O         -0.14305       -1.70329       -1.17080
C          0.50591       -2.84418       -3.18693
H         -0.49855       -3.28511       -3.17036
H          0.76767       -2.49126       -4.19227
H          1.23089       -3.61885       -2.89237
F         -2.57109        1.41282       -1.45578
F         -3.08132        2.46671        0.34678
F         -4.20530        0.71849       -0.23475
