40
Pyridazine_H7_deriv1_Int1_Sub12.log	Energy: -655824.3593547
C         -0.52152       -1.05193        1.01004
C         -0.12923       -0.28493        2.12929
C         -1.71603       -0.71279        0.32637
N         -0.90942        0.70391        2.62299
H          0.72477       -0.57446        2.74658
C         -2.37429        0.41850        0.83410
C         -2.16873       -1.53762       -0.88047
N         -1.97621        1.03387        1.98109
C         -3.54208        1.12281        0.21740
O          2.38145       -0.83461        0.78823
C          2.66426       -1.65673       -0.18685
O          2.01653       -1.72945       -1.21785
C          3.88711       -2.49713        0.07827
H          4.78183       -1.87152       -0.06098
H          3.89747       -2.86048        1.11472
H          3.92036       -3.33433       -0.62904
H          0.01325       -1.97073        0.77433
Pd         0.96998        0.44998        0.30546
O          1.91406        1.90246       -0.91221
C          0.81606        2.52025       -0.97630
O         -0.17398        2.01686       -0.34744
C          0.67041        3.79753       -1.72475
H         -0.31792        3.84340       -2.20047
H          0.74162        4.63206       -1.01025
H          1.47024        3.89695       -2.46837
H         -4.06501        1.67683        1.00676
H         -4.24537        0.46731       -0.30473
H         -3.16078        1.86116       -0.50630
C         -1.20505       -2.69677       -1.15896
H         -1.56016       -3.24909       -2.04139
H         -0.18016       -2.35379       -1.36571
H         -1.17494       -3.41302       -0.32259
C         -3.55367       -2.15004       -0.61648
H         -4.33808       -1.40372       -0.43907
H         -3.85911       -2.75171       -1.48620
H         -3.52155       -2.81646        0.25877
C         -2.18076       -0.64057       -2.12912
H         -2.43009       -1.24585       -3.01399
H         -2.91228        0.17403       -2.06399
H         -1.18716       -0.19566       -2.28891
