54
Pyridine_H10_deriv2_Int1_Sub11.log	Energy: -768285.6948624
C          1.01972       -0.86389       -1.64402
C          0.65997       -1.49096       -0.43154
C          0.00348       -0.13863       -2.31281
C         -0.64511       -1.34720        0.11424
H          1.37122       -2.17978        0.02156
N         -1.20492       -0.02297       -1.83043
H          0.21617        0.34201       -3.27459
C         -1.54584       -0.58070       -0.64236
C         -0.95268       -1.97720        1.48079
C         -2.97496       -0.27173       -0.26679
O          3.36932       -0.66840        0.15995
C          4.23768       -0.53762       -0.80932
O          4.03141        0.07655       -1.83981
C          5.54557       -1.23175       -0.51151
H          5.36800       -2.25447       -0.15106
H          6.17161       -1.24256       -1.41146
H          6.06509       -0.68798        0.29157
H          1.97322       -1.05751       -2.13896
Pd         1.74349        0.43177        0.02697
O          2.18250        2.15176        1.18075
C          1.00573        2.55897        0.97157
O          0.24421        1.81477        0.27132
C          0.52047        3.86727        1.49046
H         -0.53319        3.78690        1.78849
H          1.14288        4.19998        2.32984
H          0.58718        4.61129        0.68180
C          0.26368       -2.72657        2.04052
H          0.00683       -3.14026        3.02681
H          0.56345       -3.57114        1.40153
H          1.13403       -2.06635        2.17519
C         -1.28300       -0.86663        2.49373
H         -2.17491       -0.28669        2.22619
H         -1.45277       -1.30491        3.48962
H         -0.44144       -0.16121        2.56785
C         -2.09120       -3.00439        1.37057
H         -2.28603       -3.45416        2.35669
H         -3.03385       -2.57479        1.00956
H         -1.81015       -3.81458        0.68048
H         -3.21558       -0.73423        0.69758
C         -3.94774       -0.84418       -1.30580
H         -3.81742       -1.93734       -1.37391
H         -3.67558       -0.43241       -2.29170
C         -5.39273       -0.49827       -0.96741
H         -6.06586       -0.89312       -1.74560
H         -5.67934       -1.00341       -0.02645
C         -5.58681        1.00527       -0.80676
H         -6.62929        1.23098       -0.52935
H         -5.40801        1.49786       -1.77939
C         -4.62263        1.57913        0.22541
H         -4.87252        1.17035        1.22219
H         -4.74621        2.67174        0.30164
C         -3.17646        1.24200       -0.11304
H         -2.88064        1.72211       -1.06016
H         -2.48548        1.62820        0.65298
