30
Pyridine_H10_Int1_Sub24.log	Energy: -594352.0801733
C          0.22218       -1.14369        1.51544
C          0.56137       -1.61966        0.22226
C          1.24469       -0.60132        2.32045
C          1.91780       -1.51681       -0.18754
H         -0.15990       -2.20675       -0.34789
N          2.50242       -0.52782        1.92361
H          1.00857       -0.23064        3.32285
C          2.83363       -0.96235        0.70814
O          2.37168       -1.91802       -1.37684
H          3.88262       -0.88818        0.40322
O         -1.95692       -0.59613       -0.63588
C         -2.91182       -0.70288        0.25179
O         -2.80215       -0.40494        1.42697
C         -4.19539       -1.23306       -0.34250
H         -3.99849       -2.10202       -0.98532
H         -4.89359       -1.49592        0.46091
H         -4.64354       -0.45260       -0.97568
H         -0.78561       -1.28286        1.91582
Pd        -0.33350        0.38825       -0.10570
O         -0.68098        2.34263       -0.80995
C          0.47698        2.66076       -0.41408
O          1.18204        1.74386        0.11904
C          0.99080        4.05221       -0.52764
H          2.08563        4.04804       -0.59964
H          0.53843        4.55362       -1.39235
H          0.70546        4.60429        0.38128
C          1.44741       -2.36564       -2.33845
H          0.96190       -3.30739       -2.03150
H          0.67030       -1.60532       -2.53030
H          2.01682       -2.54380       -3.25835
