31
Pyridazine_H7_deriv1_Int1_Sub22.log	Energy: -581873.6998776
C          0.25927       -1.64840        0.32932
C          0.27681       -1.48957       -1.07527
C          1.44530       -1.31509        1.01035
N          1.39470       -1.08558       -1.74414
H         -0.53807       -1.84983       -1.70765
C          2.50933       -0.83779        0.26788
H          1.51639       -1.42519        2.09437
N          2.45439       -0.76089       -1.09116
C          3.80486       -0.39390        0.87328
O         -2.43033       -0.58408       -0.57341
C         -3.03418       -1.12511        0.45143
O         -2.52937       -1.26828        1.55164
C         -4.44544       -1.55415        0.13251
H         -5.07482       -0.65759        0.02838
H         -4.48180       -2.09155       -0.82494
H         -4.83352       -2.18011        0.94464
H         -0.58580       -2.10048        0.85494
Pd        -0.71618        0.31416       -0.22667
O         -1.23683        2.34506        0.01662
C         -0.00776        2.62055        0.11305
O          0.81385        1.64858        0.03569
C          0.47371        4.01831        0.27503
H          1.43325        4.03030        0.80700
H          0.62664        4.45220       -0.72533
H         -0.27825        4.61926        0.80141
C          5.00146       -1.19073        0.36719
H          3.72890       -0.44709        1.97004
H          3.93096        0.67042        0.61299
H          5.94032       -0.78782        0.77401
H          5.04854       -1.14483       -0.73008
H          4.92923       -2.24904        0.66136
