26
Pyridine_H10_deriv1_Int1_Sub18.log	Energy: -1099179.0517773
C          0.02234       -1.54545        0.00013
C          0.24746       -1.20586       -1.35565
C          1.15551       -1.45913        0.86486
C          1.53049       -0.78249       -1.76187
H         -0.53346       -1.38893       -2.09700
N          2.33473       -1.06373        0.48552
Cl         0.94529       -1.91130        2.51115
C          2.51474       -0.72002       -0.79129
H          1.74433       -0.51944       -2.79703
Cl         4.09679       -0.19005       -1.22294
O         -2.43369       -0.12697       -1.02333
C         -3.22408       -0.87776       -0.30074
O         -2.91547       -1.39226        0.75897
C         -4.59141       -1.03719       -0.92100
H         -4.51072       -1.24684       -1.99627
H         -5.13796       -1.83748       -0.40837
H         -5.14233       -0.09079       -0.81266
H         -0.90182       -2.01364        0.35249
Pd        -0.74501        0.50715       -0.23612
O         -1.13639        2.52434        0.24968
C          0.06643        2.63676        0.61986
O          0.80823        1.60509        0.50604
C          0.59987        3.89841        1.19741
H          1.67138        3.99099        0.97958
H          0.04025        4.75917        0.81100
H          0.47259        3.86172        2.29052
