42
Pyridine_H10_deriv2_Int1_Sub16.log	Energy: -692960.9688134
C         -0.43220       -1.02476        1.50856
C          0.26302       -1.47503        0.35463
C          0.28330       -0.19576        2.40301
C          1.58059       -1.06825        0.08940
H         -0.22487       -2.20461       -0.29141
N          1.51739        0.18885        2.17403
H         -0.19049        0.15003        3.32809
C          2.13952       -0.20810        1.05920
C          2.30911       -1.46456       -1.19222
O          3.37745        0.24600        0.86686
O         -2.53931       -0.93760       -0.51221
C         -3.52830       -1.01625        0.33864
O         -3.54002       -0.48238        1.43294
C         -4.67716       -1.84622       -0.18423
H         -4.31200       -2.79875       -0.59271
H         -5.40170       -2.02311        0.61937
H         -5.16562       -1.30409       -1.00765
H         -1.39304       -1.44281        1.81131
Pd        -1.11237        0.34672       -0.08330
O         -1.55278        2.04987       -1.27209
C         -0.48631        2.57962       -0.85632
O          0.22473        1.90767       -0.03847
C         -0.07330        3.94898       -1.27167
H          1.02012        4.00297       -1.35307
H         -0.55257        4.22084       -2.21994
H         -0.39325        4.66264       -0.49683
C          1.45287       -2.40255       -2.04603
H          2.00268       -2.66118       -2.96307
H          1.22398       -3.34427       -1.52327
H          0.50417       -1.93395       -2.35037
C          2.58537       -0.19481       -2.01482
H          3.21974        0.51162       -1.46478
H          3.09382       -0.45991       -2.95518
H          1.64147        0.31331       -2.26509
C          3.62376       -2.18565       -0.85954
H          4.14100       -2.46748       -1.79008
H          4.29645       -1.54997       -0.27063
H          3.42852       -3.10712       -0.28925
C          3.90751        1.16717        1.80080
H          3.27768        2.06633        1.86372
H          3.97780        0.72260        2.80383
H          4.90650        1.42424        1.42812
