33
Pyridazine_H7_deriv1_Int1_Sub7.log	Energy: -616595.0127446
C          0.12702       -1.35421       -0.94655
C         -0.06153       -1.98079        0.33163
C         -1.04090       -1.05609       -1.66824
N         -1.30315       -2.26444        0.79113
N          0.98861       -2.34891        1.08793
C         -2.27986       -1.32440       -1.08878
H         -0.96366       -0.62273       -2.66806
N         -2.35433       -1.95826        0.09497
C         -3.57342       -0.93049       -1.72275
O          2.14322        0.15965        0.22131
C          2.86337        0.43074       -0.83991
O          2.38636        0.73450       -1.91725
C          4.34848        0.32725       -0.59355
H          4.65584        1.12794        0.09548
H          4.59825       -0.62883       -0.11153
H          4.89030        0.42864       -1.54108
H          1.09448       -1.36743       -1.45105
Pd         0.21167        0.59905        0.03457
O         -0.00257        2.50252        0.95102
C         -1.24472        2.42224        0.75258
O         -1.67859        1.37383        0.16950
C         -2.18655        3.48354        1.20303
H         -3.01376        3.58239        0.48825
H         -2.61078        3.18623        2.17450
H         -1.65646        4.43583        1.32554
H         -4.38589       -1.54683       -1.31722
H         -3.54279       -1.03629       -2.81674
H         -3.79352        0.12370       -1.48954
H          1.84627       -1.84799        0.86244
C          0.82827       -2.80876        2.44542
H          1.77347       -3.25330        2.78353
H          0.03405       -3.56377        2.48970
H          0.55099       -1.99062        3.13335
