35
Pyridine_H10_Int1_Sub5.log	Energy: -596487.8841511
C          1.06069        0.50721        1.20952
C          1.26091        1.27238        0.02954
C          0.24449        1.04248        2.24672
C          0.59706        2.51898       -0.02397
C          2.29767        0.87235       -0.99519
N         -0.34754        2.21363        2.17598
H          0.09839        0.45142        3.15779
C         -0.16534        2.93225        1.05306
H          0.69891        3.16448       -0.89790
H         -0.66382        3.90703        1.02425
O          0.79231       -1.82134       -0.44748
C          0.90020       -2.70093        0.51465
O          0.40584       -2.56462        1.61913
C          1.70439       -3.91363        0.11346
H          2.64497       -3.61278       -0.36882
H          1.90432       -4.53354        0.99533
H          1.13201       -4.49650       -0.62354
H          1.67130       -0.37202        1.42111
Pd        -0.48790       -0.36919       -0.07558
O         -2.26704       -1.03373       -1.00418
C         -2.82199        0.04401       -0.65024
O         -2.10696        0.88833       -0.01903
C         -4.26089        0.31211       -0.92071
H         -4.43746        1.39179       -1.00452
H         -4.58015       -0.21283       -1.82969
H         -4.85156       -0.07019       -0.07383
H          2.49318       -0.19921       -0.83679
C          1.81333        1.04793       -2.42981
H          2.57776        0.68657       -3.13349
H          0.89083        0.47563       -2.61003
H          1.61640        2.10391       -2.67366
C          3.58914        1.64948       -0.72923
H          3.94804        1.49557        0.29949
H          4.38096        1.31984       -1.41899
H          3.44104        2.73125       -0.87601
