47
Styrene_H13_Int1_Sub3.log	Energy: -708160.1028268
C          0.06126        0.73284        1.31475
C          1.32144        1.30130        1.61502
C         -0.68242        1.15763        0.17703
C          1.88133        2.26938        0.79317
H          1.83874        0.96223        2.51412
C         -0.10476        2.17071       -0.63118
C         -2.12751        0.75802        0.01036
C          3.20872        2.84643        1.03038
C          1.12647        2.70636       -0.32520
H         -0.65427        2.53986       -1.49927
C          4.16845        2.32762        1.80483
H          3.41502        3.77816        0.49141
H          1.54879        3.48229       -0.96903
H          4.03924        1.37966        2.33470
H          5.13000        2.83241        1.92109
O         -0.79185       -1.93347        0.53592
C         -0.48418       -2.50850        1.66837
O          0.50407       -2.24152        2.32791
C         -1.49480       -3.55145        2.08463
H         -2.51295       -3.13899        2.04315
H         -1.45648       -4.39463        1.37908
H         -1.26591       -3.90668        3.09628
H         -0.41331        0.09767        2.06457
Pd         0.61180       -0.76718       -0.21205
O          1.69090       -2.06619       -1.49200
C          2.41694       -1.08984       -1.82834
O          2.15854        0.04141       -1.30541
C          3.51685       -1.23728       -2.82264
H          3.10831       -1.05915       -3.82940
H          4.30206       -0.49511       -2.63110
H          3.92188       -2.25643       -2.79001
H         -2.28979       -0.12194        0.65315
C         -2.49470        0.34156       -1.41531
H         -1.84307       -0.48801       -1.73331
H         -2.30617        1.17931       -2.11081
C         -3.96016       -0.06655       -1.50783
H         -4.21107       -0.34141       -2.54484
H         -4.11492       -0.97573       -0.89994
C         -4.88396        1.03970       -1.01011
H         -5.93493        0.71076       -1.04968
H         -4.80553        1.91001       -1.68716
C         -4.51704        1.47367        0.40471
H         -4.70498        0.63709        1.10154
H         -5.16244        2.30364        0.73500
C         -3.05135        1.88127        0.50352
H         -2.87622        2.78738       -0.10449
H         -2.79158        2.14868        1.54077
