35
Styrene_H9_Int1_Sub24.log	Energy: -632829.9748312
C          0.03115       -1.57030       -0.08495
C         -0.84256       -1.68986        1.05018
C         -0.50217       -1.16223       -1.33140
C         -0.34089       -2.12179        2.35547
C         -2.17614       -1.38055        0.88368
C         -1.87010       -0.84841       -1.47446
H          0.12895       -1.22405       -2.22086
C          0.95053       -2.17245        2.70944
H         -1.11289       -2.39258        3.08404
C         -2.69525       -0.94607       -0.36181
H         -2.87374       -1.44348        1.72118
H         -2.24858       -0.53879       -2.44726
H          1.75805       -1.86021        2.03735
H          1.22925       -2.50154        3.71373
O         -4.00241       -0.66176       -0.35866
O          2.19828       -0.01614       -1.28515
C          3.16975       -0.57594       -0.62224
O          3.10147       -0.94725        0.53780
C          4.42993       -0.71754       -1.44417
H          4.20091       -1.12310       -2.43929
H          4.87333        0.27869       -1.59153
H          5.14545       -1.36130       -0.91910
H          1.02255       -2.02226       -0.03270
Pd         0.59177        0.52715       -0.27460
O          0.91137        2.57484        0.21917
C         -0.23511        2.59087        0.74486
O         -0.92381        1.52007        0.69637
C         -0.76274        3.80243        1.43434
H         -1.85980        3.80428        1.41751
H         -0.43113        3.77891        2.48394
H         -0.35875        4.70962        0.96766
C         -4.59844       -0.19334       -1.53958
H         -4.12663        0.74244       -1.88476
H         -4.54385       -0.94311       -2.34750
H         -5.65170        0.00073       -1.30322
