34
Styrene_H9_Int1_Sub6.log	Energy: -585660.8016534
C         -0.02736       -1.64865       -0.07422
C         -1.05000       -1.86803        0.90884
C         -0.36042       -1.43960       -1.44358
C         -0.73075       -2.15259        2.30868
C         -2.37361       -1.82168        0.49659
C         -1.73469       -1.36221       -1.79465
C          0.66204       -1.58542       -2.53236
C          0.43558       -1.90144        2.91802
H         -1.55510       -2.58641        2.88598
C         -2.71128       -1.55296       -0.84116
H         -3.16622       -1.98343        1.23075
H         -2.00321       -1.18860       -2.83903
H          1.26843       -1.39961        2.41370
H          0.56306       -2.15152        3.97443
H         -3.76444       -1.50331       -1.12705
O          2.00887        0.37284       -0.75515
C          2.83577        0.23136        0.24210
O          2.49805        0.01815        1.39389
C          4.28229        0.36196       -0.17261
H          4.49793       -0.28971       -1.03123
H          4.47431        1.39660       -0.49327
H          4.93450        0.11021        0.67188
H          1.00286       -1.89930        0.18837
Pd         0.09680        0.53393       -0.28737
O         -0.14038        2.60470        0.08014
C         -1.36741        2.39848        0.29501
O         -1.79410        1.20600        0.16524
C         -2.28132        3.49500        0.72092
H         -3.31509        3.26297        0.43613
H         -2.23231        3.58411        1.81722
H         -1.95648        4.44831        0.28520
H          0.41646       -0.94542       -3.39183
H          0.66304       -2.63082       -2.88258
H          1.66683       -1.32375       -2.18221
