47
Styrene_H9_Int1_Sub19.log	Energy: -708162.0467633
C          0.92062       -1.61402       -0.12229
C         -0.01295       -1.70377        0.95860
C          0.47816       -1.18505       -1.39698
C          0.40327       -2.14702        2.29007
C         -1.32970       -1.34920        0.71343
C         -0.87663       -0.83408       -1.59778
H          1.15388       -1.26850       -2.25119
C          1.66879       -2.21181        2.72603
H         -0.41514       -2.41355        2.96831
C         -1.77928       -0.89652       -0.54996
H         -2.04318       -1.40529        1.53979
H         -1.20730       -0.50975       -2.58705
H          2.51928       -1.90148        2.10861
H          1.88099       -2.54908        3.74371
C         -3.20684       -0.45442       -0.73494
O          3.15080       -0.03608       -1.22063
C          4.07740       -0.58564       -0.48691
O          3.93146       -0.93702        0.67177
C          5.38739       -0.74037       -1.22335
H          5.22262       -1.15883       -2.22576
H          5.84228        0.25297       -1.35429
H          6.06519       -1.37827       -0.64392
H          1.90758       -2.06370       -0.00445
Pd         1.48938        0.51027       -0.31101
O          1.81395        2.53744        0.23530
C          0.63255        2.57668        0.67680
O         -0.06732        1.51652        0.58244
C          0.05416        3.82107        1.25763
H         -0.75730        3.57462        1.95363
H          0.83843        4.40349        1.75748
H         -0.35859        4.43234        0.44016
H         -3.33613       -0.21273       -1.80546
C         -3.49909        0.82787        0.05837
H         -2.76775        1.60336       -0.21631
H         -3.33543        0.62822        1.13242
C         -4.92931        1.30585       -0.16040
H         -5.12250        2.20746        0.44320
H         -5.05348        1.60851       -1.21613
C         -5.94202        0.21498        0.17099
H         -6.96687        0.56611       -0.03067
H         -5.89643       -0.00395        1.25343
C         -5.65536       -1.06346       -0.60913
H         -5.81145       -0.87447       -1.68673
H         -6.36864       -1.85514       -0.32864
C         -4.22589       -1.54647       -0.38922
H         -4.10180       -1.84105        0.66807
H         -4.02250       -2.44852       -0.98853
