43
Styrene_H9_Int1_Sub20.log	Energy: -659611.1204411
C          0.37287       -1.59710       -0.11366
C         -0.52122       -1.67894        0.99981
C         -0.10744       -1.12246       -1.35600
C         -0.07070       -2.16605        2.30465
C         -1.83171       -1.27364        0.81303
C         -1.45686       -0.71847       -1.49679
H          0.52708       -1.21006       -2.24086
C          1.20760       -2.28503        2.68860
H         -0.87123       -2.41860        3.00911
C         -2.32368       -0.77190       -0.41845
H         -2.50830       -1.32883        1.66916
H         -1.79224       -0.36468       -2.47081
H          2.04397       -1.99173        2.04417
H          1.44720       -2.65184        3.68982
C         -3.76940       -0.28783       -0.49456
O          2.60766       -0.07426       -1.27496
C          3.54340       -0.67165       -0.59172
O          3.43283       -1.04220        0.56485
C          4.81511       -0.85714       -1.38589
H          4.59373       -1.25059       -2.38753
H          5.29869        0.12228       -1.51874
H          5.49372       -1.52898       -0.84720
H          1.34789       -2.08164       -0.04601
Pd         1.00689        0.51151       -0.28526
O          1.43661        2.50735        0.29723
C          0.27666        2.58354        0.78824
O         -0.47129        1.55665        0.69529
C         -0.22407        3.83412        1.42521
H         -0.98415        3.59744        2.18035
H          0.61008        4.39276        1.86779
H         -0.68799        4.46304        0.64960
C         -4.13759        0.20030       -1.89542
H         -5.18495        0.53738       -1.90655
H         -3.51285        1.05072       -2.20797
H         -4.03838       -0.59776       -2.64709
C         -4.71584       -1.43522       -0.11336
H         -4.52496       -1.80848        0.90348
H         -5.76152       -1.09170       -0.14968
H         -4.60954       -2.28188       -0.80877
C         -3.94010        0.88048        0.48961
H         -4.96560        1.27839        0.43202
H         -3.75678        0.56903        1.52839
H         -3.22949        1.68779        0.26025
