34
Styrene_H9_Int1_Sub22.log	Energy: -585662.5927970
C         -0.11388       -1.61000       -0.21666
C         -1.13455       -1.75808        0.77601
C         -0.45719       -1.16020       -1.51407
C         -0.81987       -2.22140        2.12825
C         -2.43623       -1.44424        0.42189
C         -1.80121       -0.85210       -1.82878
H          0.29340       -1.19927       -2.30669
C          0.40557       -2.25666        2.66951
H         -1.68366       -2.53022        2.72759
C         -2.78904       -0.97792       -0.86733
H         -3.22418       -1.54817        1.17355
H         -2.05334       -0.51858       -2.83771
H          1.29481       -1.90542        2.13384
H          0.54178       -2.61193        3.69405
C         -4.21176       -0.60899       -1.15382
O          2.15492        0.05195       -1.08428
C          3.03389       -0.49557       -0.29270
O          2.80358       -0.88918        0.83847
C          4.40454       -0.58911       -0.92103
H          4.33619       -0.97179       -1.94860
H          4.84057        0.41971       -0.97584
H          5.04932       -1.23187       -0.31011
H          0.87311       -2.03289       -0.02337
Pd         0.41026        0.52957       -0.30000
O          0.64529        2.53457        0.34980
C         -0.56943        2.53390        0.69399
O         -1.23751        1.46824        0.49556
C         -1.21203        3.74131        1.28530
H         -2.13635        3.46677        1.80788
H         -0.51059        4.24101        1.96616
H         -1.45431        4.44567        0.47476
H         -4.47527        0.31889       -0.62057
H         -4.90560       -1.39070       -0.80875
H         -4.38108       -0.44174       -2.22617
