34
Styrene_H13_Int1_Sub14.log	Energy: -585659.8935731
C          0.00042       -1.69604        0.39857
C         -1.19750       -1.45923        1.10716
C         -0.01989       -1.64655       -1.01745
C         -2.37778       -1.14583        0.44970
H         -1.19038       -1.53620        2.19594
C         -1.24076       -1.37892       -1.68248
H          0.85259       -1.97457       -1.58624
C         -3.59282       -0.83413        1.21519
C         -2.40333       -1.11706       -0.98204
H         -1.25606       -1.36702       -2.77488
C         -3.60575       -0.18750        2.38624
H         -4.54700       -1.14154        0.77453
C         -3.66601       -0.77260       -1.71066
H         -2.68540        0.19175        2.83995
H         -4.54197        0.00314        2.91624
O          2.56160       -0.43205       -0.56438
C          3.23544       -0.80793        0.48972
O          2.77561       -0.89645        1.61399
C          4.67888       -1.12116        0.16919
H          4.74954       -1.75645       -0.72450
H          5.20696       -0.18216       -0.05485
H          5.15120       -1.60960        1.02971
H          0.88563       -2.03480        0.94103
Pd         0.76319        0.30975       -0.26373
O          1.07245        2.40622       -0.13245
C         -0.17706        2.55552       -0.03620
O         -0.90017        1.50794       -0.06747
C         -0.79543        3.90644        0.08034
H         -0.87653        4.34551       -0.92596
H         -1.79973        3.83009        0.51492
H         -0.15430        4.56164        0.68413
H         -4.02643        0.22489       -1.41412
H         -4.47427       -1.48783       -1.48853
H         -3.50718       -0.77069       -2.79718
