34
Styrene_H13_Int1_Sub22.log	Energy: -585661.7156040
C          0.00538       -1.71115       -0.03330
C          1.33621       -1.51435       -0.45267
C         -0.34010       -1.52565        1.33120
C          2.32065       -1.11597        0.44569
H          1.58379       -1.69230       -1.50046
C          0.67778       -1.17037        2.25348
H         -1.32408       -1.83414        1.69001
C          3.70505       -0.85348        0.04810
C          1.96491       -0.96471        1.81349
H          0.43070       -1.06356        3.31168
C          4.14099       -0.62996       -1.20097
H          4.43154       -0.81234        0.86855
H          2.74063       -0.67105        2.52517
H          3.41359       -0.62354       -2.02189
C          5.55683       -0.36246       -1.57370
O         -2.75329       -0.42957        0.21939
C         -3.16206       -0.94168       -0.91028
O         -2.45322       -1.14549       -1.87975
C         -4.64048       -1.25590       -0.89863
H         -4.91752       -1.78742        0.02224
H         -5.20628       -0.31227       -0.91382
H         -4.89919       -1.85147       -1.78211
H         -0.72426       -2.10660       -0.74387
Pd        -0.93751        0.33192        0.26403
O         -1.22445        2.38430       -0.18951
C          0.01080        2.56764       -0.00442
O          0.71374        1.55800        0.32267
C          0.62721        3.91841       -0.13141
H          0.47878        4.46382        0.81334
H          1.70392        3.82976       -0.32154
H          0.13127        4.48384       -0.93082
H          5.65648        0.61521       -2.07459
H          5.92430       -1.11505       -2.29189
H          6.22065       -0.37146       -0.69712
