40
Styrene_H9_Int1_Sub13.log	Energy: -634963.4086951
C          0.12757       -0.41751       -1.57706
C          0.56223       -1.70005       -1.11031
C         -1.16042       -0.25950       -2.14573
C          1.87335       -1.87557       -0.49204
C         -0.31197       -2.76980       -1.25697
C         -2.02177       -1.37533       -2.26831
H         -1.41574        0.68731       -2.62701
C          2.62201       -0.87542        0.00143
H          2.22485       -2.91005       -0.39880
C         -1.58895       -2.60907       -1.82521
H         -0.00214       -3.75843       -0.90954
H         -3.00655       -1.25393       -2.72261
H          2.24022        0.15490       -0.03379
C          3.95193       -1.03908        0.66591
H         -2.24452       -3.47858       -1.91334
O         -0.75991        2.24754       -0.72495
C          0.41484        2.74670       -0.46443
O          1.33937        2.12737        0.03672
C          0.52614        4.20552       -0.83954
H          0.10814        4.38277       -1.83996
H         -0.06410        4.80204       -0.12776
H          1.57537        4.52077       -0.79647
H          0.86436        0.38220       -1.66812
Pd        -1.14748        0.45318       -0.00155
O         -1.91827        0.81137        1.93746
C         -2.10269       -0.43222        2.06069
O         -1.78135       -1.17431        1.07756
C         -2.69991       -1.01298        3.29572
H         -2.47612       -2.08459        3.36191
H         -2.32529       -0.47826        4.17830
H         -3.79173       -0.87773        3.25717
H          4.22842       -2.10852        0.64852
C          5.01649       -0.24656       -0.09503
H          6.00028       -0.34341        0.39058
H          5.11042       -0.59667       -1.13396
H          4.75511        0.82371       -0.12148
C          3.86454       -0.57857        2.12235
H          3.12799       -1.17182        2.68462
H          4.84027       -0.67470        2.62424
H          3.55559        0.47777        2.17580
