31
Styrene_H13_Int1_Sub2.log	Energy: -849330.6446957
C         -0.76202       -1.33377       -0.83782
C         -0.06103       -1.57804        0.36719
C         -2.15204       -1.05549       -0.78368
C         -0.73438       -1.52918        1.62667
H          0.95449       -1.97578        0.32861
C         -2.80566       -1.01714        0.42961
Cl        -3.00058       -0.76879       -2.25755
C         -0.01974       -1.75579        2.88238
C         -2.09605       -1.25788        1.61932
H         -3.87332       -0.79487        0.46009
C          1.31192       -1.72758        3.03199
H         -0.65717       -1.93279        3.75576
H         -2.63560       -1.21641        2.56860
H          1.99188       -1.49987        2.20332
H          1.75637       -1.90242        4.01488
O          1.80026       -0.14441       -1.44197
C          2.88344       -0.58175       -0.86225
O          2.99781       -0.78126        0.33565
C          4.01314       -0.81292       -1.83688
H          3.65549       -1.34641       -2.72811
H          4.39830        0.16199       -2.17163
H          4.81754       -1.37297       -1.34566
H         -0.29006       -1.53933       -1.80048
Pd         0.35685        0.50954       -0.27026
O          0.74730        2.57453       -0.04749
C         -0.31853        2.67401        0.62319
O         -0.99910        1.61168        0.80142
C         -0.78652        3.98120        1.16002
H         -1.36959        4.49283        0.37869
H         -1.43271        3.82533        2.03269
H          0.07385        4.61319        1.41405
