47
Styrene_H9_Int1_Sub11.log	Energy: -708163.3785831
C         -0.83011       -0.32196       -1.67856
C         -0.28785       -1.61227       -1.37311
C         -2.20574       -0.17545       -1.98399
C          1.11930       -1.77537       -1.01977
C         -1.15119       -2.70006       -1.41213
C         -3.05101       -1.30987       -2.00362
H         -2.56769        0.78621       -2.35482
C          1.91909       -0.77496       -0.61424
H          1.50834       -2.79991       -1.05289
C         -2.51580       -2.55050       -1.71999
H         -0.76046       -3.69474       -1.18410
H         -4.10657       -1.19644       -2.25625
H          1.50820        0.23992       -0.51886
C          3.34788       -0.91898       -0.21303
H         -3.15778       -3.43444       -1.73139
O         -1.58728        2.26828       -0.52835
C         -0.39583        2.79026       -0.45873
O          0.61785        2.17619       -0.16707
C         -0.38609        4.26830       -0.76938
H         -0.98220        4.48075       -1.66744
H         -0.85044        4.81105        0.06767
H          0.64646        4.61346       -0.89908
H         -0.14075        0.50329       -1.86423
Pd        -1.79642        0.42903        0.15567
O         -2.18835        0.66520        2.22285
C         -2.32209       -0.58793        2.30933
O         -2.18186       -1.26899        1.24302
C         -2.65927       -1.24845        3.60133
H         -2.40860       -2.31545        3.56281
H         -2.13014       -0.75020        4.42413
H         -3.74004       -1.14145        3.78112
H          3.66122       -1.97138       -0.34817
C          3.52658       -0.54856        1.26725
H          2.90925       -1.21630        1.88959
H          3.13187        0.47208        1.42077
C          4.98724       -0.60660        1.69899
H          5.07990       -0.30665        2.75549
H          5.34311       -1.65158        1.64127
C          5.86706        0.27139        0.81613
H          6.92331        0.18795        1.11971
H          5.58303        1.32938        0.96130
C          5.70538       -0.09102       -0.65585
H          6.09389       -1.11220       -0.82343
H          6.31294        0.57780       -1.28699
C          4.24524       -0.03262       -1.08965
H          3.87806        1.00761       -1.02134
H          4.14083       -0.33151       -2.14521
