43
Styrene_H9_Int1_Sub12.log	Energy: -659613.5122060
C         -0.07883       -0.31956       -1.62792
C          0.56342       -1.53052       -1.21113
C         -1.40348       -0.34461       -2.12993
C          1.91356       -1.51594       -0.65295
C         -0.14912       -2.71567       -1.34363
C         -2.09595       -1.57340       -2.23734
H         -1.81928        0.56189       -2.57573
C          2.49224       -0.41633       -0.14282
H          2.42722       -2.48201       -0.62334
C         -1.46291       -2.73653       -1.84654
H          0.32001       -3.65299       -1.03465
H         -3.10996       -1.59230       -2.64023
H          1.92056        0.52116       -0.12778
C          3.85454       -0.29956        0.48227
H         -1.98652       -3.69224       -1.92469
O         -1.27616        2.17428       -0.67071
C         -0.18514        2.83772       -0.41440
O          0.82606        2.35413        0.06960
C         -0.29280        4.30167       -0.76912
H         -0.74207        4.42855       -1.76364
H         -0.95729        4.79556       -0.04428
H          0.69905        4.76726       -0.72973
H          0.52765        0.58034       -1.74218
Pd        -1.37804        0.33122        0.02911
O         -2.09674        0.54219        2.00946
C         -2.09835       -0.71694        2.11005
O         -1.72498       -1.38806        1.09467
C         -2.54637       -1.39914        3.35625
H         -2.16250       -2.42599        3.38963
H         -2.21685       -0.82770        4.23373
H         -3.64677       -1.42935        3.36598
C          4.64163       -1.60585        0.45503
H          5.63222       -1.46508        0.91439
H          4.12430       -2.39980        1.01594
H          4.79733       -1.96067       -0.57574
C          4.61617        0.79064       -0.28771
H          4.04884        1.73423       -0.28986
H          5.59666        0.97911        0.17840
H          4.78494        0.49100       -1.33367
C          3.65200        0.16481        1.93314
H          4.62399        0.34618        2.41963
H          3.06837        1.09759        1.96781
H          3.11097       -0.59567        2.51714
