34
Styrene_H13_Int1_Sub6.log	Energy: -585659.6929232
C         -0.03508       -1.70679        0.08117
C         -1.17986       -1.55501        0.89873
C         -0.12918       -1.59240       -1.33526
C         -2.41950       -1.26029        0.34710
H         -1.06144       -1.67928        1.97643
C         -1.40906       -1.31687       -1.87884
C          1.00667       -1.99514       -2.22776
C         -3.61991       -1.03453        1.15913
C         -2.51039       -1.16703       -1.06445
H         -1.51555       -1.23702       -2.96321
C         -3.64715       -0.75055        2.46624
H         -4.56861       -1.08649        0.61286
H         -3.48345       -0.94978       -1.51255
H         -2.73341       -0.64340        3.05759
H         -4.59463       -0.59838        2.98780
O          2.40073       -0.18243       -0.14954
C          2.83861       -0.41016        1.06127
O          2.12926       -0.44142        2.05050
C          4.33175       -0.63178        1.11097
H          4.63879       -1.36902        0.35580
H          4.84422        0.31197        0.87190
H          4.62373       -0.96468        2.11394
H          0.87822       -2.09439        0.53492
Pd         0.52074        0.40672       -0.23915
O          0.66009        2.51758       -0.14417
C         -0.59489        2.58084       -0.26419
O         -1.22877        1.48342       -0.38293
C         -1.31341        3.88566       -0.29842
H         -1.33881        4.24721       -1.33805
H         -2.34554        3.75944        0.05173
H         -0.77926        4.62662        0.30962
H          0.97220       -1.45108       -3.18232
H          0.93294       -3.07209       -2.45335
H          1.97443       -1.80152       -1.74747
