47
Styrene_H13_Int1_Sub19.log	Energy: -708161.3286226
C         -1.36479       -1.73262        0.11879
C          0.03441       -1.57064        0.07475
C         -2.05903       -1.54388        1.34285
C          0.74971       -1.20221        1.20924
H          0.55227       -1.74787       -0.86936
C         -1.31722       -1.22753        2.51032
H         -3.11185       -1.82295        1.41936
C          2.19284       -0.95740        1.19203
C          0.04569       -1.05601        2.43509
H         -1.83691       -1.12211        3.46482
C          2.92718       -0.66654        0.10809
H          2.69144       -0.98066        2.16850
H          0.60957       -0.78998        3.33271
H          2.43173       -0.58710       -0.86876
C          4.39659       -0.40222        0.11097
O         -4.04917       -0.35583       -0.35991
C         -4.15670       -0.85057       -1.56370
O         -3.22106       -1.07672       -2.31023
C         -5.59366       -1.11292       -1.95230
H         -6.12461       -1.63754       -1.14599
H         -6.10350       -0.15009       -2.10658
H         -5.62545       -1.69618       -2.88019
H         -1.88731       -2.10261       -0.76651
Pd        -2.28715        0.33895        0.17957
O         -2.36368        2.40172       -0.31626
C         -1.21696        2.53603        0.19402
O         -0.66891        1.50079        0.69244
C         -0.53293        3.85913        0.24286
H         -0.90310        4.41578        1.11757
H          0.55095        3.72346        0.34443
H         -0.77452        4.44038       -0.65630
H          4.76710       -0.50796        1.14752
C          4.70329        1.02765       -0.35710
H          4.19156        1.74798        0.30122
H          4.27390        1.16895       -1.36625
C          6.20182        1.30456       -0.39985
H          6.38611        2.32682       -0.76781
H          6.60622        1.26820        0.62799
C          6.93581        0.28514       -1.26384
H          8.02048        0.47878       -1.24984
H          6.61307        0.40120       -2.31449
C          6.64342       -1.13914       -0.80533
H          7.06833       -1.29078        0.20350
H          7.14413       -1.86740       -1.46352
C          5.14529       -1.41871       -0.76319
H          4.73411       -1.37427       -1.78870
H          4.94934       -2.43812       -0.39395
