36
Thiophene_H6_Int1_Sub20.log	Energy: -812332.3619246
C          0.19822       -1.51165       -0.44875
C          0.01567       -1.41040        0.94638
S         -1.29394       -1.23824       -1.28121
C         -1.33289       -1.07031        1.29198
H          0.75867       -1.76568        1.66309
C         -2.15070       -0.92127        0.20548
H         -1.66350       -0.92191        2.31860
C         -3.59855       -0.49335        0.15514
O          2.77139       -0.51899        0.70213
C          3.45646       -1.22727       -0.15273
O          3.06521       -1.58879       -1.24929
C          4.83794       -1.56244        0.36264
H          5.44886       -0.64726        0.36557
H          4.78789       -1.92381        1.39894
H          5.30442       -2.31187       -0.28756
H          1.05218       -1.95177       -0.97721
Pd         1.08908        0.36947        0.18389
O          1.62305        2.43309        0.04444
C          0.41090        2.69759       -0.17681
O         -0.41339        1.72516       -0.20314
C         -0.06630        4.09636       -0.37217
H         -0.88813        4.11675       -1.09968
H         -0.45074        4.47532        0.58739
H          0.76137        4.73849       -0.69687
C         -4.13855       -0.31144        1.57381
H         -5.19683       -0.01338        1.53248
H         -4.07412       -1.24440        2.15405
H         -3.58951        0.47419        2.11410
C         -3.69788        0.84094       -0.60128
H         -3.36685        0.73266       -1.64524
H         -4.74135        1.19281       -0.60710
H         -3.05863        1.60218       -0.13270
C         -4.42328       -1.56523       -0.57161
H         -5.47992       -1.26028       -0.62189
H         -4.06814       -1.71694       -1.60275
H         -4.36646       -2.53175       -0.04847
