24
Thiophene_H6_Int1_Sub18.log	Energy: -1002046.2557187
C          0.10839       -1.52355        0.45100
C          0.27351       -1.45392       -0.94942
S          1.62963       -1.35918        1.26818
C          1.63414       -1.22714       -1.33322
H         -0.50887       -1.76088       -1.64635
C          2.45382       -1.14221       -0.24484
H          1.98243       -1.11535       -2.35883
Cl         4.12609       -0.82049       -0.25690
O         -2.40869       -0.35209       -0.67580
C         -3.12349       -1.04248        0.16926
O         -2.73194       -1.47992        1.23831
C         -4.53986       -1.24887       -0.31614
H         -5.07985       -0.29217       -0.25301
H         -4.54746       -1.55803       -1.37026
H         -5.04210       -1.99448        0.31133
H         -0.77100       -1.89703        0.99307
Pd        -0.65564        0.40423       -0.17989
O         -1.02444        2.49802       -0.04181
C          0.20846        2.66477        0.16834
O          0.94825        1.62650        0.19070
C          0.79358        4.02118        0.35831
H          1.79104        3.95023        0.80841
H          0.87601        4.51063       -0.62420
H          0.12488        4.63082        0.98025
