46
Toluene_H10_Int1_Sub65.log	Energy: -684282.5081508
C         -0.73795       -0.52895       -1.77533
C          0.46389       -1.29351       -1.85284
C         -1.95245       -1.12547       -1.35552
C          0.40618       -2.62939       -1.49853
C          1.73647       -0.60865       -2.25380
C         -1.96801       -2.49756       -1.01149
H         -2.89023       -0.56668       -1.40628
C         -0.80148       -3.22928       -1.08501
H          1.31671       -3.23260       -1.53975
H          1.54907        0.00911       -3.14844
C          2.29635        0.29222       -1.14329
H          2.49475       -1.35784       -2.53532
H         -2.90406       -2.96163       -0.69624
H         -0.80471       -4.28801       -0.81600
O         -1.63729        1.76390       -0.34305
C         -2.92810        1.96821       -0.33067
O         -3.76230        1.11651       -0.08232
C         -3.28853        3.39988       -0.65193
H         -4.37012        3.48215       -0.81146
H         -2.99199        4.04084        0.19184
H         -2.73859        3.74965       -1.53653
H         -0.75606        0.47750       -2.20112
Pd        -1.01045        0.03505        0.36065
O         -0.52150        0.47418        2.37384
C         -0.11287       -0.71305        2.50807
O         -0.19587       -1.48114        1.49468
C          0.42691       -1.21283        3.80280
H         -0.40891       -1.59673        4.40797
H          1.13506       -2.03255        3.62842
H          0.90228       -0.39208        4.35443
H          1.47188        0.95455       -0.81233
C          3.42501        1.19033       -1.64416
H          3.07922        1.78606       -2.50567
H          4.25182        0.55573       -2.01497
C          3.93873        2.10840       -0.53912
H          4.77278        2.72442       -0.91253
H          3.13472        2.81209       -0.25804
C          4.36857        1.32289        0.69585
H          4.68361        2.01170        1.49639
H          5.25463        0.71118        0.44565
C          3.25414        0.40467        1.18645
H          2.40767        1.01477        1.55143
H          3.59957       -0.19364        2.04582
C          2.75795       -0.50970        0.07219
H          3.57612       -1.18526       -0.24254
H          1.94247       -1.15180        0.43841
