30
Toluene_H10_Int1_Sub68.log	Energy: -537130.7795203
C          0.44426       -1.79072       -0.28813
C          1.79979       -1.77018       -0.73266
C          0.12701       -1.54990        1.07215
C          2.78370       -1.48575        0.19667
C          2.11019       -2.05227       -2.16995
C          1.16653       -1.27697        1.99262
H         -0.89390       -1.68518        1.43737
C          2.47144       -1.24258        1.55040
H          3.82797       -1.45136       -0.12407
H          1.72418       -3.03887       -2.47185
H          1.63477       -1.30612       -2.82586
H          3.19179       -2.03437       -2.35989
H          0.92150       -1.09964        3.04117
H          3.27999       -1.02430        2.25172
O         -1.99723       -0.35535       -0.73865
C         -2.93357       -0.45993        0.16664
O         -2.75695       -0.34236        1.36580
C         -4.29023       -0.74015       -0.43747
H         -5.00265       -0.99564        0.35579
H         -4.63811        0.15857       -0.96847
H         -4.22598       -1.55093       -1.17631
H         -0.33340       -2.16270       -0.96020
Pd        -0.24542        0.32023       -0.14416
O         -0.36338        2.40445       -0.48504
C          0.83696        2.50734       -0.10580
O          1.44283        1.43747        0.22446
C          1.51420        3.83078       -0.01036
H          1.29703        4.26422        0.97819
H          2.60053        3.71201       -0.10744
H          1.12156        4.51187       -0.77592
