34
Toluene_H10_Int1_Sub146.log	Energy: -585660.8978242
C         -0.09785       -1.70467        0.65702
C         -1.25614       -1.55437        1.47651
C         -0.19699       -1.54060       -0.74843
C         -2.44335       -1.20483        0.86582
C         -1.15064       -1.77518        2.95352
C         -1.43293       -1.19959       -1.33101
H          0.65244       -1.77585       -1.39402
C         -2.55529       -1.00773       -0.53561
H         -3.33686       -1.06708        1.48123
H         -0.78052       -2.78872        3.17546
H         -0.43792       -1.06668        3.40391
H         -2.12112       -1.64714        3.45144
H         -1.49530       -1.10224       -2.41584
C         -3.85852       -0.61456       -1.08312
O          2.46602       -0.47129        0.31142
C          3.07668       -0.69704       -0.82092
O          2.55716       -0.61733       -1.91971
C          4.52926       -1.06777       -0.62849
H          4.95007       -1.42014       -1.57763
H          5.08306       -0.18000       -0.28811
H          4.63387       -1.83567        0.15047
H          0.81075       -2.13581        1.08472
Pd         0.66686        0.32651        0.22218
O          1.01730        2.41319        0.35778
C         -0.23225        2.59404        0.35022
O         -0.97608        1.56197        0.29917
C         -0.82400        3.96127        0.36293
H         -0.88996        4.32321       -0.67480
H         -1.83540        3.93559        0.78727
H         -0.17731        4.64771        0.92395
C         -4.08540       -0.10530       -2.29943
H         -4.70726       -0.74086       -0.40161
H         -3.27813        0.08207       -3.01275
H         -5.09663        0.15786       -2.61738
