46
Toluene_H10_Int1_Sub155.log	Energy: -684283.2732167
C          0.89838       -1.72277        0.67030
C         -0.16863       -1.57613        1.60718
C          0.65754       -1.53390       -0.71306
C         -1.40952       -1.20578        1.12942
C          0.08789       -1.82425        3.06146
C         -0.63402       -1.17271       -1.15475
H          1.43451       -1.76075       -1.44711
C         -1.66409       -0.99129       -0.24912
H         -2.22519       -1.06887        1.84447
H          0.42992       -2.85792        3.23056
H          0.87915       -1.15825        3.43953
H         -0.81552       -1.66016        3.66419
H         -0.80994       -1.02580       -2.22267
C         -3.02623       -0.54410       -0.70908
O          3.41893       -0.48753        0.09918
C          3.91961       -0.70937       -1.08687
O          3.30117       -0.61969       -2.13213
C          5.38157       -1.08970       -1.03219
H          5.70986       -1.43886       -2.01831
H          5.97052       -0.20733       -0.74018
H          5.55316       -1.86293       -0.27058
H          1.84435       -2.16178        0.99710
Pd         1.62302        0.31521        0.18522
O          1.99490        2.40218        0.29862
C          0.75220        2.59083        0.40691
O         -0.00119        1.56398        0.42098
C          0.17111        3.96134        0.47805
H         -0.05147        4.30045       -0.54559
H         -0.76624        3.94781        1.04854
H          0.89338        4.65730        0.92252
H         -2.99717       -0.50135       -1.81276
C         -3.35157        0.87103       -0.20892
H         -2.54703        1.55829       -0.51126
H         -3.34700        0.86961        0.89594
C         -4.71061        1.34145       -0.71231
H         -4.93376        2.34505       -0.31525
H         -4.67374        1.44571       -1.81198
C         -5.81779        0.36176       -0.33835
H         -6.78495        0.69930       -0.74449
H         -5.93121        0.34667        0.76109
C         -5.49942       -1.04744       -0.82645
H         -5.49790       -1.05760       -1.93151
H         -6.28669       -1.75182       -0.51285
C         -4.14147       -1.52274       -0.32164
H         -4.17719       -1.61957        0.77824
H         -3.90910       -2.52581       -0.71424
