31
Toluene_H10_Int1_Sub151.log	Energy: -594971.0628434
C         -0.16071       -1.70490        0.60543
C         -1.35299       -1.53805        1.37237
C         -0.17265       -1.53018       -0.79986
C         -2.50702       -1.16961        0.71149
C         -1.31803       -1.76254        2.85159
C         -1.37463       -1.17097       -1.44974
H          0.70778       -1.77241       -1.40051
C         -2.52178       -0.98441       -0.69522
H         -3.43226       -1.01684        1.27031
H         -0.98799       -2.78708        3.08510
H         -0.60419       -1.07583        3.33250
H         -2.30459       -1.60692        3.30749
H         -1.39346       -1.04177       -2.53236
C         -3.74448       -0.59553       -1.33293
O          2.41943       -0.45637        0.39486
C          3.09101       -0.71878       -0.69605
O          2.62427       -0.68543       -1.82050
C          4.53429       -1.06398       -0.41689
H          4.99829       -1.47160       -1.32273
H          5.06621       -0.14994       -0.11288
H          4.61086       -1.77819        0.41436
H          0.72467       -2.13318        1.08205
Pd         0.62932        0.33413        0.18357
O          0.96615        2.41100        0.36297
C         -0.27981        2.59608        0.26493
O         -1.01463        1.56065        0.15103
C         -0.87270        3.96024        0.24467
H         -0.90546        4.31023       -0.79882
H         -1.89906        3.93512        0.63174
H         -0.24808        4.65359        0.82155
N         -4.73802       -0.28258       -1.84109
