33
Toluene_H10_Int1_Sub117.log	Energy: -561783.7752971
C          0.68575       -1.46623       -1.07120
C          2.08764       -1.24570       -1.15711
C          0.07437       -1.73709        0.17619
C          2.81119       -1.28790        0.02128
C          2.72124       -0.94832       -2.48082
C          0.84199       -1.76815        1.37621
H         -0.95881       -2.08575        0.21304
C          2.20020       -1.53516        1.26755
H          3.88954       -1.11123       -0.01032
H          2.40582       -1.67044       -3.24977
H          2.42590        0.05265       -2.83544
H          3.81762       -0.97144       -2.41617
C          0.15167       -2.05196        2.67272
H          2.81876       -1.53882        2.16871
O         -1.99524       -0.15252       -1.04149
C         -2.91938       -0.41890       -0.15785
O         -2.72016       -0.49949        1.04241
C         -4.28356       -0.61058       -0.77626
H         -4.97150       -1.03119       -0.03328
H         -4.66245        0.36623       -1.11268
H         -4.22260       -1.25976       -1.66056
H          0.09777       -1.58362       -1.98585
Pd        -0.27833        0.41008       -0.25568
O         -0.46741        2.50769       -0.03295
C          0.71309        2.53951        0.41369
O          1.35034        1.43882        0.47109
C          1.33296        3.80688        0.89294
H          1.09149        3.93249        1.95979
H          2.42416        3.76169        0.78768
H          0.91855        4.66185        0.34412
H         -0.12133       -3.11797        2.74484
H         -0.78304       -1.47456        2.73772
H          0.79002       -1.80815        3.53287
