30
Toluene_H10_Int1_Sub23.log	Energy: -537130.7744293
C          0.44376       -1.79078       -0.28859
C          1.79927       -1.77047       -0.73314
C          0.12660       -1.55016        1.07177
C          2.78327       -1.48640        0.19623
C          2.10956       -2.05206       -2.17050
C          1.16619       -1.27763        1.99226
H         -0.89482       -1.68544        1.43719
C          2.47108       -1.24333        1.55000
H          3.82753       -1.45218       -0.12453
H          1.72241       -3.03797       -2.47314
H          1.63512       -1.30502       -2.82615
H          3.19118       -2.03512       -2.36029
H          0.92122       -1.10050        3.04087
H          3.27969       -1.02534        2.25135
O         -1.99741       -0.35472       -0.73850
C         -2.93362       -0.45910        0.16696
O         -2.75670       -0.34184        1.36611
C         -4.29038       -0.73946       -0.43687
H         -5.00258       -0.99510        0.35654
H         -4.63848        0.15925       -0.96772
H         -4.22618       -1.55020       -1.17577
H         -0.33401       -2.16244       -0.96072
Pd        -0.24537        0.32032       -0.14409
O         -0.36282        2.40463       -0.48448
C          0.83769        2.50710       -0.10562
O          1.44325        1.43701        0.22449
C          1.51535        3.83032       -0.01015
H          1.29851        4.26369        0.97850
H          2.60161        3.71123       -0.10748
H          1.12274        4.51162       -0.77553
