33
Toluene_H10_Int1_Sub162.log	Energy: -561783.8655675
C         -0.31640       -1.71225        0.50723
C         -1.57422       -1.56714        1.16718
C         -0.22676       -1.53309       -0.89514
C         -2.66934       -1.20875        0.40811
C         -1.66441       -1.80279        2.64304
C         -1.38000       -1.18474       -1.63244
H          0.70184       -1.76031       -1.42437
C         -2.59357       -1.00477       -0.99337
H         -3.63571       -1.07429        0.90307
H         -1.34204       -2.82448        2.89993
H         -1.00519       -1.11078        3.19017
H         -2.68933       -1.66356        3.01238
H         -1.29953       -1.04998       -2.71314
C         -3.81551       -0.57036       -1.74099
O          2.26260       -0.46591        0.53488
C          3.02814       -0.69124       -0.49930
O          2.67077       -0.61339       -1.66094
C          4.43925       -1.05905       -0.10121
H          4.99209       -1.40981       -0.98067
H          4.93687       -0.17051        0.31540
H          4.43302       -1.82749        0.68420
H          0.52801       -2.14487        1.04958
Pd         0.49190        0.32541        0.19332
O          0.81502        2.41142        0.39001
C         -0.41997        2.59325        0.20283
O         -1.14963        1.56302        0.03783
C         -1.00549        3.96228        0.13944
H         -0.91530        4.33419       -0.89294
H         -2.06857        3.93664        0.40945
H         -0.44832        4.64186        0.79664
H         -4.04471        0.48132       -1.50359
H         -4.69500       -1.16841       -1.45764
H         -3.67604       -0.64758       -2.82775
