33
Toluene_H10_Int1_Sub31.log	Energy: -618991.7929539
C          0.23916        1.63660        0.66768
C          1.66690        1.83524        0.67586
C         -0.49512        1.92206       -0.53288
C          2.31452        2.09165       -0.50844
C          2.40733        1.66977        1.96397
C          0.21688        2.08380       -1.75706
N         -1.82243        2.09538       -0.49865
C          1.58450        2.17769       -1.71976
H          3.40061        2.19704       -0.52506
H          1.89911        2.18970        2.79028
H          2.46124        0.60154        2.22903
H          3.43487        2.04933        1.88636
H         -0.33478        2.19493       -2.69253
H          2.12754        2.33561       -2.65498
O         -1.85454       -0.52962        0.77640
C         -2.60024       -1.05875       -0.17746
O         -2.20561       -1.26105       -1.30591
C         -4.00981       -1.34924        0.27487
H         -4.57233       -1.82396       -0.53734
H         -3.99383       -2.00026        1.16037
H         -4.50384       -0.41015        0.56857
H         -0.30007        1.74116        1.61327
Pd         0.09942       -0.50303        0.28907
O          0.59818       -2.57118        0.06754
C          1.77385       -2.21496       -0.20049
O          2.03799       -0.96561       -0.16967
C          2.82849       -3.19745       -0.58069
H          2.84519       -3.28500       -1.67805
H          3.81413       -2.84604       -0.24963
H          2.59850       -4.18288       -0.15710
H         -2.37514        2.01484       -1.34676
O         -2.51274        1.96594        0.66142
H         -2.38267        1.00987        0.91504
