35
Toluene_H10_Int1_Sub107.log	Energy: -632856.1631420
C         -0.48514       -0.28613        1.84214
C         -1.70561        0.41582        2.07309
C         -0.39995       -1.26832        0.82594
C         -2.78592        0.12671        1.25632
C         -1.77776        1.43078        3.16925
C         -1.52840       -1.54131        0.00830
H          0.48383       -1.90464        0.76075
C         -2.69626       -0.83303        0.23407
H         -3.72769        0.66028        1.40649
H         -1.48263        0.99174        4.13532
H         -1.08631        2.26509        2.97078
H         -2.79022        1.84316        3.27180
C         -1.49617       -2.54702       -1.10559
H         -3.54897       -1.04598       -0.41462
O          2.21782        0.13164        0.91498
C          2.88498       -0.80039        0.29179
O          2.44326       -1.46428       -0.63138
C          4.28714       -0.97416        0.82276
H          4.72077       -1.90050        0.42789
H          4.89793       -0.11872        0.49701
H          4.29104       -0.97981        1.92128
H          0.33089       -0.19518        2.56380
Pd         0.50657        0.64482        0.08020
O          1.02791        2.10574       -1.35517
C         -0.19804        2.23139       -1.63258
O         -1.02300        1.52875       -0.96221
C         -0.66867        3.13050       -2.72118
H         -0.72421        2.54787       -3.65383
H         -1.67287        3.50995       -2.49376
H          0.04175        3.95347       -2.86756
O         -2.47598       -2.70198       -1.80169
C         -0.23189       -3.33073       -1.31174
H          0.65105       -2.67516       -1.38289
H         -0.06094       -3.99458       -0.44797
H         -0.33586       -3.94233       -2.21558
