31
Toluene_H10_Int1_Sub174.log	Energy: -786926.9149872
C         -0.10368       -1.64719        0.59752
C         -1.25694       -1.45159        1.41947
C         -0.20762       -1.50073       -0.80908
C         -2.43899       -1.07485        0.81778
C         -1.15203       -1.65989        2.89798
C         -1.43201       -1.13407       -1.39438
H          0.64404       -1.74508       -1.44986
C         -2.53893       -0.91033       -0.58694
H         -3.31991       -0.90002        1.44073
H         -0.85172       -2.69499        3.12618
H         -0.38462       -0.99938        3.33027
H         -2.10506       -1.45891        3.40529
H         -1.49811       -1.02162       -2.47812
S         -4.04019       -0.42791       -1.35697
O          2.50685       -0.49049        0.38159
C          3.13637       -0.83889       -0.70779
O          2.64656       -0.85893       -1.82315
C          4.57646       -1.21581       -0.44419
H          5.00899       -1.67513       -1.34089
H          5.14214       -0.30748       -0.18780
H          4.64872       -1.89788        0.41421
H          0.78454       -2.11654        1.02719
Pd         0.73049        0.34529        0.20618
O          1.13524        2.42903        0.25056
C         -0.10822        2.64066        0.20844
O         -0.87851        1.62650        0.19249
C         -0.66436        4.02134        0.14186
H         -0.69892        4.33336       -0.91346
H         -1.68493        4.04222        0.54388
H         -0.01200        4.71811        0.68321
H         -4.77399       -0.33401       -0.22923
