30
Toluene_H10_Int1_Sub112.log	Energy: -599373.3667889
C          0.36489       -1.67416       -0.61822
C          1.64749       -1.60740       -1.23409
C          0.21652       -1.52751        0.78385
C          2.74419       -1.38776       -0.41856
C          1.76899       -1.77821       -2.71719
C          1.37887       -1.32497        1.55911
H         -0.74065       -1.69987        1.28683
C          2.62137       -1.25073        0.97766
H          3.73911       -1.32048       -0.86550
H          1.35686       -2.74728       -3.04054
H          1.20822       -0.99486       -3.25089
H          2.81671       -1.72795       -3.04274
F          1.24767       -1.20443        2.87292
H          3.49673       -1.08023        1.60640
O         -2.11551       -0.21551       -0.73529
C         -2.96064       -0.56528        0.19813
O         -2.68080       -0.71808        1.37330
C         -4.36020       -0.75662       -0.33903
H         -4.98721       -1.23137        0.42484
H         -4.77985        0.22673       -0.59920
H         -4.34524       -1.35831       -1.25818
H         -0.49591       -2.00071       -1.20701
Pd        -0.32655        0.41662       -0.21123
O         -0.49755        2.51884       -0.33558
C          0.72724        2.60861       -0.04018
O          1.36894        1.52204        0.13499
C          1.39500        3.92780        0.13433
H          1.26091        4.25147        1.17817
H          2.47000        3.84099       -0.06696
H          0.92962        4.67632       -0.51920
