30
Toluene_H10_Int1_Sub22.log	Energy: -599371.3909304
C         -0.56683       -1.70718        0.49046
C         -1.93088       -1.50090        0.86416
C         -0.21926       -1.69827       -0.87972
C         -2.85369       -1.23363       -0.13109
C         -2.30901       -1.57919        2.30998
C         -1.17139       -1.41984       -1.87826
F          0.96576       -2.15589       -1.24996
C         -2.47313       -1.18460       -1.48672
H         -3.89578       -1.05102        0.13870
H         -2.03512       -2.55699        2.73665
H         -1.77707       -0.81168        2.89326
H         -3.38775       -1.43104        2.45063
H         -0.85820       -1.41953       -2.92275
H         -3.22701       -0.96093       -2.24450
O          1.88477       -0.39939        0.87417
C          2.86546       -0.16488        0.03674
O          2.72012        0.38609       -1.03670
C          4.19808       -0.65523        0.54690
H          4.97384       -0.46103       -0.20301
H          4.44806       -0.14384        1.48787
H          4.14181       -1.73181        0.76371
H          0.15917       -2.10323        1.20435
Pd         0.18627        0.34533        0.22400
O          0.39169        2.44969        0.37210
C         -0.78243        2.56932       -0.07106
O         -1.43289        1.49962       -0.31144
C         -1.38201        3.90559       -0.34374
H         -1.11077        4.20622       -1.36760
H         -2.47580        3.85639       -0.27323
H         -0.97465        4.65121        0.35061
