30
Toluene_H10_Int1_Sub150.log	Energy: -825452.7025803
C         -0.13429       -1.64783        0.63941
C         -1.30094       -1.43275        1.43539
C         -0.19398       -1.50721       -0.76933
C         -2.46656       -1.05142        0.80166
C         -1.23013       -1.62354        2.91821
C         -1.40453       -1.13479       -1.39245
H          0.66497       -1.77701       -1.38978
C         -2.51097       -0.90486       -0.60187
H         -3.37329       -0.85896        1.37785
H         -0.92212       -2.65157        3.16656
H         -0.48322       -0.94711        3.36200
H         -2.19842       -1.42902        3.39788
H         -1.46082       -1.02832       -2.47580
Cl        -4.00201       -0.42638       -1.32688
O          2.48746       -0.50940        0.39275
C          3.12709       -0.84760       -0.69496
O          2.64631       -0.84814       -1.81423
C          4.56108       -1.23815       -0.42195
H          4.99757       -1.69331       -1.31881
H          5.13148       -0.33620       -0.15373
H          4.62079       -1.92753        0.43148
H          0.74659       -2.10528        1.09627
Pd         0.72199        0.34162        0.19567
O          1.14171        2.41589        0.27273
C         -0.09916        2.64029        0.20739
O         -0.87568        1.63132        0.16134
C         -0.64310        4.02515        0.14879
H         -0.68251        4.34030       -0.90547
H         -1.66145        4.05230        0.55626
H          0.01781        4.71451        0.68901
