30
Toluene_H10_Int1_Sub67.log	Energy: -599370.5983953
C          0.51728       -1.69690        0.07777
C          1.90491       -1.58381       -0.22163
C          0.04296       -1.35031        1.36625
C          2.76656       -1.12205        0.75272
C          2.38492       -1.97233       -1.58623
C          0.95911       -0.90253        2.35013
H         -0.99651       -1.53494        1.64738
C          2.29740       -0.79243        2.04167
H          3.82820       -1.00204        0.52149
H          2.36127       -3.07076       -1.70590
F          1.57903       -1.43006       -2.55577
H          3.42047       -1.62950       -1.74416
H          0.58975       -0.64843        3.34527
H          3.00482       -0.43364        2.79234
O         -1.97997       -0.51924       -0.71749
C         -2.97942       -0.60447        0.11906
O         -2.91211       -0.35830        1.31028
C         -4.25884       -1.04127       -0.55577
H         -5.01119       -1.28875        0.20244
H         -4.62896       -0.21775       -1.18472
H         -4.07594       -1.89943       -1.21697
H         -0.14915       -2.19307       -0.63172
Pd        -0.33415        0.34774       -0.07520
O         -0.55767        2.36749       -0.66214
C          0.59954        2.59795       -0.21303
O          1.23829        1.61964        0.29423
C          1.18910        3.96545       -0.24124
H          0.81852        4.52520        0.63138
H          2.28334        3.91189       -0.18665
H          0.86536        4.49506       -1.14641
