32
Toluene_H10_Int1_Sub149.log	Energy: -608196.9643594
C         -0.14789       -1.69851        0.69157
C         -1.30462       -1.49631        1.50109
C         -0.20715       -1.54423       -0.71756
C         -2.47257       -1.11157        0.87023
C         -1.21754       -1.69899        2.98175
C         -1.42561       -1.16788       -1.32302
H          0.64652       -1.81454       -1.34384
C         -2.53754       -0.94422       -0.53069
H         -3.37350       -0.92937        1.46432
H         -0.89496       -2.72456        3.22141
H         -0.47735       -1.01594        3.42695
H         -2.18465       -1.52092        3.47056
H         -1.50558       -1.04630       -2.40496
C         -3.81167       -0.51210       -1.15777
O          2.43356       -0.49468        0.35093
C          3.06546       -0.75005       -0.76538
O          2.56546       -0.68410       -1.87334
C          4.50850       -1.13307       -0.53680
H          4.93845       -1.52329       -1.46680
H          5.06857       -0.24034       -0.22040
H          4.59179       -1.87391        0.27025
H          0.74973       -2.13012        1.14174
Pd         0.65271        0.32811        0.19916
O          1.03996        2.39892        0.34309
C         -0.20405        2.61117        0.28769
O         -0.96762        1.59356        0.21683
C         -0.76366        3.99012        0.26674
H         -0.84327        4.31757       -0.78152
H         -1.76843        4.00027        0.70759
H         -0.09315        4.67969        0.79446
O         -3.96062       -0.33678       -2.33890
H         -4.65454       -0.35297       -0.43701
