30
Toluene_H10_Int1_Sub70.log	Energy: -723581.8155030
C         -0.34212        1.79113       -0.02824
C          0.97772        1.84633       -0.56599
C         -1.46211        1.76218       -0.89334
C          1.13438        1.84899       -1.94107
C          2.14713        1.87661        0.34603
C         -1.26018        1.78433       -2.29647
H         -2.47670        1.84751       -0.49748
C          0.02027        1.82516       -2.80386
H          2.14127        1.86639       -2.36576
H          1.95521        2.44445        1.26406
I          2.68489       -0.11498        1.06834
H          3.05444        2.24773       -0.14312
H         -2.12718        1.77122       -2.95927
H          0.18171        1.83337       -3.88382
O         -2.02395        0.00929        1.49445
C         -3.31719        0.16241        1.39334
O         -3.92005        0.29768        0.34337
C         -4.00721        0.14529        2.73734
H         -5.04697        0.47420        2.62391
H         -3.98868       -0.88106        3.13365
H         -3.47419        0.78207        3.45669
H         -0.49309        1.93547        1.04472
Pd        -1.02101       -0.32380       -0.16740
O         -0.82932       -2.43203       -0.24925
C         -0.09663       -2.29456       -1.26761
O          0.08868       -1.11067       -1.70192
C          0.56701       -3.45495       -1.92245
H          0.58778       -3.31379       -3.01100
H          1.60812       -3.50279       -1.56706
H          0.05598       -4.38805       -1.65658
