36
Toluene_H10_Int1_Sub180.log	Energy: -688279.6075749
C          0.52412       -1.73671        0.59294
C         -0.52367       -1.64147        1.55976
C          0.26196       -1.46227       -0.77151
C         -1.76918       -1.22192        1.14286
C         -0.24283       -1.98721        2.98835
C         -1.03024       -1.06451       -1.17392
H          1.02162       -1.65555       -1.53294
C         -2.01538       -0.92195       -0.21665
H         -2.59220       -1.11012        1.84886
H          0.08932       -3.03368        3.07859
H          0.56526       -1.35671        3.39053
H         -1.13209       -1.85318        3.61786
H         -1.23012       -0.88141       -2.22953
N         -3.29744       -0.46346       -0.57585
O          3.05143       -0.47937        0.07798
C          3.52863       -0.66935       -1.12343
O          2.88475       -0.55866       -2.15195
C          4.99339       -1.03822       -1.11117
H          5.29843       -1.37440       -2.10914
H          5.58169       -0.15287       -0.82686
H          5.19239       -1.81649       -0.36164
H          1.47056       -2.20505        0.87354
Pd         1.25725        0.31908        0.21821
O          1.62894        2.39181        0.45039
C          0.38583        2.57414        0.57295
O         -0.36516        1.54572        0.51929
C         -0.19290        3.93576        0.74076
H         -0.28530        4.40278       -0.25198
H         -1.18893        3.87514        1.19627
H          0.47981        4.55783        1.34508
N         -4.35629       -0.70294        0.21483
N         -5.39003       -0.17781       -0.33481
C         -3.67436        0.24796       -1.67063
C         -5.02524        0.42163       -1.49900
H         -2.97498        0.58341       -2.42955
H         -5.74299        0.94080       -2.12980
