39
Toluene_H10_Int1_Sub69.log	Energy: -611082.0066004
C          0.25677       -1.35854        1.06745
C          1.65642       -1.09707        1.15447
C         -0.65726       -0.70822        1.93403
C          2.08717       -0.17705        2.09374
C          2.59242       -1.79664        0.21492
C         -0.17144        0.21466        2.88949
H         -1.71090       -0.99784        1.94660
C          1.18155        0.47238        2.95762
H          3.15422        0.04669        2.17118
H          2.33169       -2.86811        0.18340
C          2.56249       -1.24323       -1.22163
H          3.62332       -1.73272        0.60185
H         -0.87300        0.70858        3.56389
H          1.56371        1.18887        3.68828
O         -1.80875       -1.08583       -0.88070
C         -3.03895       -1.14341       -0.44319
O         -3.46311       -0.52712        0.51758
C         -3.90297       -2.06459       -1.27271
H         -4.86654       -2.21774       -0.77259
H         -4.06929       -1.60716       -2.25948
H         -3.39645       -3.02528       -1.43977
H         -0.09182       -2.19121        0.45117
Pd        -0.65344        0.30278       -0.09728
O         -0.84817        1.93215       -1.43746
C         -0.00401        2.56796       -0.74774
O          0.48775        1.97843        0.27004
C          0.38970        3.96493       -1.08170
H         -0.24660        4.65524       -0.50649
H          1.43403        4.14302       -0.79502
H          0.23540        4.15792       -2.15042
H          1.50751       -1.25637       -1.55489
C          3.05570        0.19694       -1.27881
H          2.97723        0.59606       -2.30192
H          2.47489        0.85417       -0.61489
H          4.11540        0.25847       -0.97799
C          3.36329       -2.14355       -2.15322
H          2.97779       -3.17503       -2.15119
H          3.32769       -1.77291       -3.18898
H          4.42298       -2.18088       -1.84976
