30
Toluene_H10_Int1_Sub158.log	Energy: -537130.7783236
C          0.44397       -1.79076       -0.28842
C          1.79945       -1.77038       -0.73311
C          0.12692       -1.55002        1.07194
C          2.78351       -1.48615        0.19612
C          2.10965       -2.05211       -2.17046
C          1.16656       -1.27731        1.99232
H         -0.89395       -1.68518        1.43727
C          2.47138       -1.24299        1.54989
H          3.82775       -1.45189       -0.12473
H          1.72257       -3.03810       -2.47294
H          1.63507       -1.30520       -2.82615
H          3.19125       -2.03508       -2.36035
H          0.92167       -1.10008        3.04093
H          3.28018       -1.02485        2.25125
O         -1.99735       -0.35497       -0.73847
C         -2.93362       -0.45964        0.16688
O         -2.75688       -0.34229        1.36605
C         -4.29035       -0.73970       -0.43714
H         -5.00269       -0.99533        0.35614
H         -4.63825        0.15912       -0.96793
H         -4.22619       -1.55035       -1.17614
H         -0.33381       -2.16257       -0.96045
Pd        -0.24540        0.32030       -0.14406
O         -0.36307        2.40457       -0.48466
C          0.83736        2.50722       -0.10566
O          1.44313        1.43720        0.22431
C          1.51471        3.83057       -0.00980
H          1.29765        4.26369        0.97892
H          2.60102        3.71175       -0.10701
H          1.12205        4.51195       -0.77509
