36
Toluene_H10_Int1_Sub156.log	Energy: -586433.4725716
C          0.07506       -1.79835        0.48773
C         -1.13268       -1.80770        1.24894
C          0.03460       -1.53886       -0.90492
C         -2.31392       -1.51477        0.59748
C         -1.08205       -2.13346        2.70948
C         -1.20083       -1.26197       -1.52976
H          0.93394       -1.64990       -1.51545
C         -2.37012       -1.23334       -0.79054
H         -3.24609       -1.50087        1.17047
H         -0.66769       -3.14092        2.87466
H         -0.43052       -1.42625        3.24613
H         -2.08002       -2.09469        3.16649
H         -1.22215       -1.06431       -2.60384
C         -3.68082       -0.85548       -1.41944
O          2.52848       -0.32146        0.38261
C          3.22007       -0.41198       -0.72199
O          2.75906       -0.29821       -1.84344
C          4.68682       -0.66978       -0.46325
H          5.19037       -0.91794       -1.40504
H          5.13901        0.23626       -0.03276
H          4.81546       -1.47829        0.26964
H          0.99603       -2.17813        0.93717
Pd         0.67272        0.31982        0.23453
O          0.82519        2.41836        0.51333
C         -0.43230        2.49187        0.44048
O         -1.07847        1.40519        0.28611
C         -1.14341        3.80044        0.49350
H         -1.18547        4.21706       -0.52484
H         -2.16979        3.66332        0.85608
H         -0.59158        4.50523        1.12819
H         -3.63594       -1.05576       -2.50153
H         -4.47925       -1.49830       -1.01245
C         -4.03274        0.61195       -1.18133
H         -4.99209        0.86762       -1.65618
H         -4.10871        0.83134       -0.10589
H         -3.25072        1.27029       -1.58627
