30
Toluene_H10_Int1_Sub60.log	Energy: -825451.3212312
C          0.34815       -1.71270        0.25014
C          1.76725       -1.62052        0.15815
C         -0.30705       -1.38088        1.45981
C          2.48116       -1.19185        1.26012
C          2.44312       -1.94242       -1.13335
C          0.46082       -0.96213        2.57573
H         -1.37834       -1.55759        1.58189
C          1.83107       -0.87116        2.47051
H          3.56764       -1.09460        1.19240
H          2.05543       -2.87114       -1.57362
Cl         2.16520       -0.65435       -2.35950
H          3.52901       -2.03314       -1.00569
H         -0.04781       -0.71823        3.51014
H          2.42561       -0.53976        3.32445
O         -1.98362       -0.47685       -0.89223
C         -3.09903       -0.57576       -0.22020
O         -3.21175       -0.36937        0.97523
C         -4.26515       -0.97271       -1.09538
H         -5.12650       -1.23309       -0.46896
H         -4.52725       -0.12455       -1.74554
H         -3.99207       -1.81219       -1.74947
H         -0.21484       -2.18869       -0.55681
Pd        -0.44399        0.34938        0.01629
O         -0.52285        2.37732       -0.58117
C          0.55673        2.57361        0.04322
O          1.07462        1.57886        0.64740
C          1.19184        3.91915        0.10567
H          0.81763        4.44321        0.99873
H          2.28110        3.82027        0.19466
H          0.92078        4.50649       -0.78033
