33
Toluene_H10_Int1_Sub72.log	Energy: -561781.0543564
C         -0.43525       -1.76269        0.08733
C         -1.83964       -1.67363        0.31702
C          0.09745       -1.55128       -1.20905
C         -2.65689       -1.36776       -0.75613
C         -2.37929       -1.83975        1.70818
C         -0.77533       -1.24796       -2.28073
H          1.15355       -1.73771       -1.41524
C         -2.13130       -1.16004       -2.04770
H         -3.73529       -1.28268       -0.59835
H         -1.89159       -2.70354        2.19028
C         -2.16772       -0.59073        2.56312
H         -3.45372       -2.07525        1.65300
H         -0.36355       -1.09416       -3.27961
H         -2.81191       -0.92245       -2.86843
O          1.99133       -0.41785        0.83796
C          3.03234       -0.50314        0.05242
O          3.00659       -0.32734       -1.15216
C          4.29800       -0.84134        0.80535
H          5.09982       -1.07449        0.09487
H          4.59099        0.02320        1.41963
H          4.12892       -1.68493        1.48885
H          0.21320       -2.15797        0.87385
Pd         0.34707        0.31867        0.04257
O          0.46363        2.39302        0.44914
C         -0.68000        2.53178       -0.06729
O         -1.26073        1.48458       -0.50152
C         -1.32108        3.86990       -0.20038
H         -1.05524        4.28891       -1.18323
H         -2.41326        3.77445       -0.15178
H         -0.94918        4.54813        0.57753
H         -1.09579       -0.36912        2.68440
H         -2.60354       -0.71821        3.56549
H         -2.63267        0.28774        2.09052
