30
Toluene_H10_Int1_Sub25.log	Energy: -723575.5207296
C         -0.09025        1.29332        1.10029
C          1.02516        2.12532        1.42504
C         -0.61223        1.28817       -0.21825
C          1.59554        2.88313        0.41888
C          1.52409        2.15111        2.83613
C         -0.00358        2.07587       -1.22448
I         -2.54582        0.54481       -0.60231
C          1.08822        2.85085       -0.89425
H          2.45610        3.51642        0.64577
H          0.72993        2.47295        3.52823
H          1.84325        1.14707        3.15577
H          2.37597        2.83494        2.94778
H         -0.40739        2.07179       -2.23731
H          1.56650        3.45557       -1.66790
O         -0.48340       -1.46396        1.27656
C         -1.00264       -2.47707        0.62368
O         -0.76274       -2.72374       -0.54089
C         -1.94276       -3.29507        1.47337
H         -2.36628       -4.10966        0.87414
H         -1.40478       -3.70531        2.34035
H         -2.74626       -2.65124        1.86017
H         -0.65980        0.81957        1.90311
Pd         0.83838       -0.49203        0.19314
O          2.34556       -1.91413       -0.26522
C          2.97573       -1.00981       -0.87541
O          2.47365        0.16274       -0.86927
C          4.23801       -1.29562       -1.61254
H          3.97928       -1.61870       -2.63280
H          4.85595       -0.39145       -1.67914
H          4.78407       -2.11231       -1.12379
