30
Toluene_H10_Int1_Sub140.log	Energy: -2151879.0037792
C          0.29146       -1.60004        0.80509
C         -0.77000       -1.31207        1.71611
C          0.08132       -1.50075       -0.59235
C         -1.98519       -0.90433        1.20130
C         -0.54141       -1.45688        3.18821
C         -1.17790       -1.09936       -1.09173
H          0.85347       -1.82645       -1.29469
C         -2.18025       -0.80168       -0.19310
H         -2.81051       -0.65932        1.87230
H         -0.24265       -2.48705        3.43894
H          0.27239       -0.79462        3.52225
H         -1.44338       -1.21049        3.76380
H         -1.34411       -1.02787       -2.16680
Br        -3.86350       -0.24401       -0.82097
O          2.90752       -0.57864        0.21340
C          3.40519       -0.97061       -0.92921
O          2.79924       -0.98017       -1.98591
C          4.84508       -1.41270       -0.80902
H          5.15926       -1.90554       -1.73662
H          5.47604       -0.52896       -0.63106
H          4.97504       -2.08456        0.05058
H          1.20147       -2.07594        1.17851
Pd         1.16448        0.33863        0.18993
O          1.66877        2.39426        0.15308
C          0.43770        2.66810        0.22024
O         -0.37649        1.69121        0.29455
C         -0.05612        4.07205        0.17789
H         -0.18221        4.36588       -0.87570
H         -1.02927        4.14934        0.67857
H          0.67927        4.74555        0.63575
