42
Toluene_H10_Int1_Sub178.log	Energy: -635732.3634733
C          0.27074       -1.64846        0.81051
C         -0.82019       -1.37912        1.68986
C          0.08887       -1.53393       -0.58805
C         -2.01502       -0.96742        1.13752
C         -0.63636       -1.54547        3.16668
C         -1.16056       -1.12237       -1.10675
H          0.87103       -1.85909       -1.27810
C         -2.21286       -0.81871       -0.26148
H         -2.84268       -0.74084        1.81404
H         -0.34947       -2.57990        3.41478
H          0.16825       -0.89131        3.53747
H         -1.55531       -1.30379        3.71764
H         -1.26400       -1.04066       -2.18781
C         -3.56119       -0.31243       -0.76674
O          2.87643       -0.61323        0.22757
C          3.39524       -0.92386       -0.93058
O          2.81362       -0.84450       -1.99752
C          4.82667       -1.39469       -0.81224
H          5.15838       -1.81371       -1.76959
H          5.46424       -0.53844       -0.54567
H          4.92577       -2.13777       -0.00889
H          1.17661       -2.11869        1.20099
Pd         1.13548        0.30596        0.21082
O          1.64182        2.36612        0.21579
C          0.41196        2.64240        0.27025
O         -0.40953        1.67035        0.31835
C         -0.07669        4.05008        0.24173
H         -0.28599        4.32685       -0.80323
H         -1.00903        4.14003        0.81381
H          0.69235        4.72753        0.63280
C         -3.59792       -0.20735       -2.29115
H         -4.58308        0.16232       -2.61305
H         -2.83950        0.49518       -2.66826
H         -3.43623       -1.18318       -2.77397
C         -4.66946       -1.27503       -0.31584
H         -4.71701       -1.36642        0.77936
H         -5.65022       -0.91267       -0.66181
H         -4.51067       -2.28180       -0.73176
C         -3.81012        1.08487       -0.17686
H         -4.76066        1.49215       -0.55611
H         -3.86959        1.06037        0.92127
H         -2.99240        1.76861       -0.44640
