33
Toluene_H10_Int1_Sub8.log	Energy: -850103.0316558
C         -0.87060        1.05799        0.98883
C         -0.15060        2.24991        1.30116
C         -1.29368        0.78191       -0.34032
C          0.16196        3.11011        0.26642
C          0.23717        2.52289        2.72100
C         -0.94318        1.69829       -1.36777
C         -2.33592       -0.26429       -0.61411
C         -0.22613        2.83121       -1.06102
H          0.72282        4.02340        0.47879
H         -0.64630        2.52652        3.37878
H          0.91621        1.74153        3.09708
H          0.74348        3.49228        2.82034
H         -1.27794        1.50352       -2.38839
H          0.04476        3.53218       -1.85344
O         -0.35586       -1.78098        1.07858
C         -0.55489       -2.80992        0.29241
O         -0.36470       -2.78859       -0.90962
C         -1.04191       -4.03192        1.03028
H         -1.41508       -4.77264        0.31315
H         -0.20184       -4.46394        1.59489
H         -1.82249       -3.76652        1.75659
H         -1.27253        0.44980        1.80435
Pd         0.63881       -0.33835        0.16903
O          2.54890       -1.18202       -0.16577
C          2.91732       -0.08661       -0.67264
O          2.07065        0.86542       -0.68881
C          4.27256        0.08458       -1.26541
H          4.23575       -0.23777       -2.31756
H          4.57328        1.13923       -1.23436
H          4.99780       -0.54864       -0.73897
Cl        -3.92104        0.52737       -0.90719
H         -2.09180       -0.86594       -1.49768
H         -2.45840       -0.92956        0.24558
