30
Toluene_H10_Int1_Sub157.log	Energy: -599375.3725118
C         -0.31324       -1.69036        0.43503
C         -1.55652       -1.57161        1.13200
C         -0.25641       -1.48982       -0.96798
C         -2.67957       -1.21895        0.41158
C         -1.60597       -1.83285        2.60458
C         -1.42278       -1.14949       -1.68204
H          0.67313       -1.68083       -1.51152
C         -2.59700       -1.01259       -0.97778
H         -3.64955       -1.09295        0.89653
H         -1.28960       -2.86401        2.82873
H         -0.91870       -1.16141        3.14203
H         -2.61663       -1.68753        3.00811
H         -1.40395       -0.99023       -2.76036
F         -3.71014       -0.68254       -1.61691
O          2.25454       -0.41757        0.55972
C          3.02143       -0.71369       -0.45511
O          2.66468       -0.72669       -1.61995
C          4.43597       -1.03674       -0.03228
H          4.98760       -1.46092       -0.87954
H          4.92919       -0.11091        0.29997
H          4.43845       -1.73109        0.81922
H          0.54311       -2.13396        0.94849
Pd         0.47856        0.35050        0.19099
O          0.78071        2.44182        0.36236
C         -0.45535        2.60698        0.16787
O         -1.16992        1.56320        0.01281
C         -1.06059        3.96520        0.08474
H         -0.99167        4.31532       -0.95688
H         -2.11962        3.92945        0.36918
H         -0.50423        4.66632        0.71946
