30
Toluene_H10_Int1_Sub113.log	Energy: -537130.7770655
C          0.44396       -1.79075       -0.28847
C          1.79945       -1.77038       -0.73311
C          0.12689       -1.55004        1.07188
C          2.78349       -1.48617        0.19616
C          2.10967       -2.05208       -2.17047
C          1.16653       -1.27738        1.99227
H         -0.89401       -1.68521        1.43716
C          2.47139       -1.24303        1.54994
H          3.82773       -1.45190       -0.12466
H          1.72259       -3.03805       -2.47299
H          1.63510       -1.30514       -2.82616
H          3.19128       -2.03505       -2.36034
H          0.92153       -1.10011        3.04121
H          3.28004       -1.02494        2.25121
O         -1.99738       -0.35493       -0.73846
C         -2.93362       -0.45961        0.16693
O         -2.75683       -0.34226        1.36609
C         -4.29036       -0.73970       -0.43704
H         -5.00267       -0.99533        0.35627
H         -4.63830        0.15913       -0.96781
H         -4.22622       -1.55035       -1.17604
H         -0.33381       -2.16256       -0.96051
Pd        -0.24540        0.32030       -0.14409
O         -0.36306        2.40459       -0.48464
C          0.83738        2.50722       -0.10563
O          1.44312        1.43719        0.22435
C          1.51478        3.83055       -0.00988
H          1.29776        4.26373        0.97882
H          2.60108        3.71168       -0.10711
H          1.12212        4.51189       -0.77519
