33
Toluene_H10_Int1_Sub12.log	Energy: -1138421.4232877
C         -0.72762       -0.42637        1.15500
C          0.10336       -0.07809        2.25393
C         -1.50930        0.56126        0.48851
C          0.13264        1.27638        2.65438
C          0.77577       -1.13996        3.07103
C         -1.46266        1.87278        0.92013
C         -2.36950        0.08495       -0.64643
C         -0.64488        2.22028        2.00773
H          0.76993        1.56836        3.49201
H          0.10804       -1.45034        3.89181
H          1.00853       -2.02209        2.46001
H          1.70595       -0.76550        3.52081
H         -2.04138        2.63320        0.39381
H         -0.61054        3.26166        2.33530
O          1.30938       -2.11196        0.06113
C          0.53898       -2.74421       -0.77821
O         -0.37016       -2.22264       -1.40568
C          0.88385       -4.20647       -0.91445
H          0.08538       -4.72771       -1.45544
H          1.82551       -4.29833       -1.47634
H          1.04636       -4.66188        0.07205
H         -0.93593       -1.47770        0.94886
Pd         1.15136       -0.14341        0.05256
O          2.70528        0.46505       -1.24236
C          2.38341        1.66598       -1.02321
O          1.42904        1.87275       -0.20506
C          3.05746        2.79854       -1.71503
H          2.52482        2.99727       -2.65796
H          3.01399        3.70331       -1.09586
H          4.09486        2.53321       -1.95419
Cl        -3.95105       -0.45412        0.00203
Cl        -2.59068        1.32200       -1.90016
H         -1.90608       -0.78651       -1.12912
