54
Toluene_H10_Int1_Sub48.log	Energy: -781383.5070120
C         -1.08515       -0.73422       -1.72169
C          0.04959       -1.59217       -1.63535
C         -2.37166       -1.18788       -1.32984
C         -0.14583       -2.86508       -1.12342
C          1.40151       -1.13572       -2.10438
C         -2.52428       -2.50311       -0.83079
H         -3.25894       -0.58284       -1.53000
C         -1.41804       -3.31885       -0.72266
H          0.70915       -3.54120       -1.04240
H          1.28547       -0.54371       -3.02836
C          2.23780       -0.30331       -1.11020
H          1.99194       -2.02651       -2.37402
H         -3.51598       -2.85520       -0.54175
H         -1.52299       -4.33272       -0.33020
O         -2.05824        1.71925       -0.58254
C         -3.34061        1.96518       -0.64144
O         -4.21146        1.17439       -0.32711
C         -3.63821        3.36010       -1.13940
H         -4.70892        3.45515       -1.35535
H         -3.35542        4.08488       -0.36129
H         -3.04049        3.58942       -2.03233
H         -0.99778        0.21674       -2.25220
Pd        -1.52516        0.05989        0.33368
O         -1.12605        0.67884        2.32757
C         -0.75037       -0.49779        2.58849
O         -0.81960       -1.35884        1.65132
C         -0.19308       -0.86665        3.91871
H         -0.45229       -1.90389        4.16651
H          0.90463       -0.79200        3.86372
H         -0.55325       -0.17447        4.68942
C          4.52377        0.71494       -0.76047
C          3.88825        2.08818       -0.52824
C          2.49825        1.90461        0.08434
H          4.52409        2.69236        0.14093
H          3.81266        2.63806       -1.48177
C          1.62599        1.08353       -0.86673
H          0.61529        0.98770       -0.43626
H          1.50816        1.61192       -1.82918
C          3.64099       -0.10253       -1.70728
H          4.10322       -1.08701       -1.89881
H          3.55781        0.40649       -2.68367
C          4.65057       -0.01975        0.57734
H          5.52243        0.83820       -1.21167
C          2.61658        1.16637        1.42046
H          2.02583        2.88708        0.24631
C          3.25999       -0.20465        1.19096
H          3.22349        1.75679        2.12771
H          1.61575        1.05685        1.87085
H          3.34832       -0.73979        2.15204
C          2.38645       -1.02460        0.23785
H          5.13159       -1.00144        0.42727
H          5.29748        0.55283        1.26346
H          1.39518       -1.19777        0.68562
H          2.83857       -2.01956        0.07450
