49
Toluene_H10_Int1_Sub161.log	Energy: -755965.0315599
C          1.17570       -1.79388        0.60047
C          0.23590       -1.65855        1.66562
C          0.80436       -1.43436       -0.71890
C         -1.01835       -1.16261        1.36968
C          0.63402       -2.04136        3.05729
C         -0.49636       -0.94723       -0.97823
H          1.45966       -1.65702       -1.56278
C         -1.41244       -0.81445        0.05105
H         -1.74351       -1.03102        2.17679
H          0.99903       -3.07998        3.09345
H          1.45260       -1.39945        3.41954
H         -0.20704       -1.94728        3.75725
H         -0.78106       -0.70712       -2.00401
C         -2.80219       -0.35339       -0.21081
O          3.66595       -0.74070       -0.40841
C          3.90586       -0.67007       -1.69168
O          3.12649       -0.22808       -2.51586
C          5.27544       -1.19463       -2.05436
H          5.35412       -1.30079       -3.14279
H          6.03585       -0.48242       -1.70034
H          5.46894       -2.15437       -1.55575
H          2.10607       -2.34376        0.76605
Pd         2.05707        0.20172        0.21990
O          2.71730        2.18629        0.59405
C          1.56638        2.45799        1.03044
O          0.70826        1.51447        1.05624
C          1.19226        3.83291        1.46432
H          0.70751        4.34451        0.61817
H          0.47180        3.78692        2.29113
H          2.08651        4.39962        1.75074
C         -3.05162        0.95850       -0.66089
C         -3.87366       -1.25122       -0.02195
C         -4.37346        1.35169       -0.88816
C         -5.17567       -0.81551       -0.27362
C         -5.45069        0.48577       -0.69864
H         -4.56395        2.37412       -1.22821
H         -6.00156       -1.52086       -0.14023
C         -1.93776        1.93850       -0.89854
H         -1.42812        1.74466       -1.85654
H         -1.16839        1.88134       -0.11616
H         -2.32953        2.96474       -0.94080
C         -6.86267        0.94327       -0.92202
H         -6.91051        1.76478       -1.65123
H         -7.30995        1.31151        0.01660
H         -7.49951        0.12356       -1.28566
C         -3.64054       -2.67294        0.41008
H         -3.39391       -2.74314        1.48144
H         -2.80302       -3.13109       -0.13674
H         -4.53840       -3.28299        0.23935
