33
Toluene_H10_Int1_Sub154.log	Energy: -655396.8878186
C          0.04429       -1.65410        0.79363
C         -1.08667       -1.39945        1.62534
C         -0.05262       -1.54706       -0.61580
C         -2.26419       -1.01473        1.01676
C         -0.96295       -1.54815        3.10987
C         -1.28227       -1.16529       -1.20262
H          0.77112       -1.86535       -1.25895
C         -2.36458       -0.89337       -0.38805
H         -3.15488       -0.79151        1.60806
H         -0.63600       -2.56485        3.37950
H         -0.21106       -0.85051        3.51108
H         -1.91792       -1.34906        3.61378
H         -1.36957       -1.08455       -2.28613
C         -3.67424       -0.45340       -0.94189
O          2.64553       -0.53663        0.29628
C          3.22552       -0.83886       -0.83567
O          2.68496       -0.78841       -1.92566
C          4.66544       -1.25724       -0.65245
H          5.05108       -1.67465       -1.59004
H          5.26055       -0.37567       -0.37075
H          4.75723       -1.98710        0.16372
H          0.94541       -2.08926        1.23335
Pd         0.88081        0.32893        0.18995
O          1.32019        2.39472        0.27642
C          0.07965        2.63294        0.26121
O         -0.70768        1.63216        0.22916
C         -0.45081        4.02382        0.24505
H         -0.51179        4.36227       -0.80092
H         -1.45808        4.05242        0.67904
H          0.23083        4.69458        0.78305
O         -4.64857       -0.22185       -0.27225
O         -3.66668       -0.33857       -2.27447
H         -4.55536       -0.04949       -2.53041
