32
Toluene_H10_Int1_Sub141.log	Energy: -584874.2214086
C         -0.16071       -1.68483        0.62292
C         -1.34361       -1.50524        1.40251
C         -0.20028       -1.53232       -0.78540
C         -2.50686       -1.14989        0.75267
C         -1.28720       -1.70382        2.88530
C         -1.41113       -1.18373       -1.41981
H          0.67105       -1.78168       -1.39620
C         -2.55615       -0.98543       -0.65902
H         -3.42305       -0.99077        1.32488
H         -0.94309       -2.72038        3.13340
H         -0.57517       -1.00114        3.34567
H         -2.26981       -1.55039        3.35082
H         -1.44528       -1.07253       -2.50403
C         -3.78890       -0.62287       -1.28047
O          2.43073       -0.48078        0.36992
C          3.08615       -0.75450       -0.72671
O          2.61288       -0.71396       -1.84822
C          4.52617       -1.12671       -0.45962
H          4.98141       -1.52330       -1.37478
H          5.07344       -0.22842       -0.13669
H          4.59302       -1.85999        0.35593
H          0.72718       -2.11811        1.09019
Pd         0.64656        0.33321        0.18427
O          1.01474        2.41423        0.31610
C         -0.23107        2.61001        0.24665
O         -0.98245        1.58461        0.17031
C         -0.80734        3.98277        0.21733
H         -0.82442        4.33171       -0.82681
H         -1.83664        3.97243        0.59693
H         -0.17824        4.66939        0.79773
C         -4.84065       -0.31712       -1.80153
H         -5.77006       -0.04515       -2.26713
