34
Toluene_H10_Int1_Sub171.log	Energy: -608951.4670211
C         -0.05194       -1.65354        0.61110
C         -1.15520       -1.51269        1.51651
C         -0.25914       -1.48119       -0.78054
C         -2.37919       -1.15476        1.00570
C         -0.94175       -1.75547        2.97781
C         -1.52621       -1.12702       -1.27954
H          0.55406       -1.69382       -1.48007
C         -2.57393       -0.94839       -0.38582
H         -3.24295       -1.00937        1.65758
H         -0.60046       -2.78772        3.15638
H         -0.16185       -1.08648        3.37334
H         -1.86211       -1.59238        3.55403
H         -1.65304       -0.98627       -2.35175
O         -3.81414       -0.58947       -0.73151
O          2.52089       -0.44271        0.29199
C          3.09351       -0.78324       -0.82974
O          2.54426       -0.81628       -1.91724
C          4.55315       -1.13366       -0.64658
H          4.94498       -1.58245       -1.56703
H          5.11524       -0.21594       -0.41713
H          4.68426       -1.81691        0.20393
H          0.86985       -2.12169        0.96443
Pd         0.71842        0.35362        0.21923
O          1.07253        2.45381        0.26057
C         -0.17566        2.63199        0.27956
O         -0.92166        1.59944        0.28473
C         -0.76932        3.99965        0.26129
H         -0.84015        4.33774       -0.78415
H         -1.77748        3.98540        0.69371
H         -0.11900        4.69967        0.80112
C         -4.08762       -0.30713       -2.07944
H         -3.45221        0.51353       -2.45314
H         -3.94208       -1.19494       -2.71818
H         -5.13957       -0.00057       -2.12768
