42
TwoHchromene_H8_deriv1_Int1_Sub13.log	Energy: -994361.1765816
C         -0.18044        0.29974       -1.52652
C         -1.15954        1.12616       -0.92254
C          1.17929        0.65029       -1.38665
C         -0.78866        2.30643       -0.20914
H         -2.21061        0.94008       -1.15408
C          1.55707        1.78950       -0.68461
O          2.09514       -0.14324       -1.98657
C          0.55398        2.60635       -0.11068
C         -1.84659        3.15828        0.45131
C          2.97534        2.06443       -0.58206
C          3.37306       -0.17702       -1.47176
H          0.86751        3.49437        0.44537
C          3.86052        1.13191       -0.97226
H          3.30464        3.02329       -0.17478
Cl         3.46366       -1.40434       -0.08207
H          4.01246       -0.62559       -2.23942
H          4.93937        1.27195       -0.88575
O         -2.42005       -1.41992       -0.30014
C         -2.33981       -2.27298       -1.28617
O         -1.34305       -2.48612       -1.95178
C         -3.64516       -2.99916       -1.52018
H         -4.48669       -2.29281       -1.53034
H         -3.59499       -3.55557       -2.46357
H         -3.81693       -3.69999       -0.68943
H         -0.44847       -0.54117       -2.17381
Pd        -0.78961       -0.59990        0.43975
O         -0.33142       -1.77158        2.15504
C          0.62240       -0.98149        2.39448
O          0.75121        0.02963        1.62765
C          1.59102       -1.20928        3.50066
H          1.28189       -2.06142        4.11685
H          2.57876       -1.40235        3.05594
H          1.67518       -0.29976        4.11189
H         -1.32393        4.02543        0.88958
C         -2.86926        3.68878       -0.55239
H         -3.58691        4.35880       -0.05477
H         -2.38287        4.25009       -1.36412
H         -3.44884        2.87003       -1.00749
C         -2.52294        2.39422        1.59182
H         -1.78046        2.02698        2.31602
H         -3.23893        3.03951        2.12408
H         -3.07649        1.52042        1.21133
