42
TwoHchromene_H8_deriv1_Int1_Sub21.log	Energy: -994359.6786475
C          0.49817       -0.30981       -1.61452
C          0.40363       -1.67102       -1.24344
C         -0.67573        0.47573       -1.54697
C         -0.83824       -2.21136       -0.82921
H          1.25550       -2.33201       -1.41567
C         -1.89414       -0.04920       -1.12464
O         -0.55896        1.76246       -1.94146
C         -1.97350       -1.42687       -0.74745
H         -0.88006       -3.26642       -0.55997
C         -3.01869        0.86893       -1.10982
C         -1.43295        2.69618       -1.42742
C         -3.27336       -1.97307       -0.19747
C         -2.81430        2.18737       -1.26910
H         -4.03009        0.48635       -0.96772
Cl        -0.82591        3.29439        0.21880
H         -1.35446        3.58606       -2.06077
H         -3.62801        2.91394       -1.24089
O          3.01760       -1.03280       -0.06401
C          3.75066       -0.27144       -0.83099
O          3.35700        0.71249       -1.43044
C          5.18649       -0.74148       -0.89538
H          5.23461       -1.82911       -1.04260
H          5.71130       -0.21657       -1.70238
H          5.67649       -0.51927        0.06456
H          1.39907        0.12516       -2.05866
Pd         1.21476       -0.46614        0.48471
O          1.46965        0.29393        2.45850
C          0.22305        0.47702        2.50944
O         -0.46798        0.08772        1.51094
C         -0.44124        1.14475        3.66174
H          0.27403        1.31996        4.47358
H         -0.85546        2.10171        3.31040
H         -1.28165        0.52914        4.01219
H         -4.09044       -1.54872       -0.80630
C         -3.39855       -3.48869       -0.28706
H         -4.40759       -3.80072        0.02065
H         -3.22716       -3.85432       -1.31058
H         -2.68706       -3.99653        0.38256
C         -3.46388       -1.49403        1.24628
H         -3.39438       -0.40011        1.32780
H         -4.44160       -1.81712        1.63609
H         -2.67473       -1.91224        1.88932
