45
TwoHchromene_H8_deriv1_Int1_Sub20.log	Energy: -1019004.8013272
C          0.55648       -0.33116       -1.60308
C          0.34449       -1.66629       -1.20132
C         -0.53232        0.56385       -1.50172
C         -0.92430       -2.06469       -0.71671
H          1.11353       -2.41680       -1.39482
C         -1.78588        0.17749       -1.02425
O         -0.28472        1.82244       -1.92801
C         -1.98410       -1.18198       -0.59701
H         -1.04047       -3.10304       -0.41534
C         -2.78994        1.23207       -1.01456
C         -1.01829        2.86165       -1.40159
C         -3.30599       -1.65665        0.02186
C         -2.44124        2.51581       -1.20363
H         -3.83745        0.98899       -0.85795
Cl        -0.29484        3.39827        0.21815
H         -0.85230        3.72878       -2.04947
H         -3.17166        3.32609       -1.17795
O          3.05578       -1.27227       -0.14093
C          3.82572       -0.59223       -0.94721
O          3.50382        0.41989       -1.54238
C          5.20537       -1.20014       -1.06486
H          5.14157       -2.28826       -1.20226
H          5.74449       -0.73433       -1.89826
H          5.75414       -1.02028       -0.12814
H          1.47493        0.01116       -2.08988
Pd         1.33929       -0.53123        0.47227
O          1.75145        0.23804        2.41466
C          0.53001        0.53414        2.51750
O         -0.23922        0.18911        1.56067
C         -0.01687        1.27997        3.68362
H          0.76013        1.44000        4.43995
H         -0.40105        2.24597        3.32355
H         -0.86368        0.72627        4.11350
C         -3.21379       -3.10627        0.51254
H         -4.17342       -3.39290        0.96763
H         -3.01794       -3.81309       -0.30760
H         -2.43301       -3.23126        1.27745
C         -3.63528       -0.79994        1.25726
H         -3.79156        0.26079        1.02632
H         -4.55018       -1.17775        1.73964
H         -2.80804       -0.85085        1.97999
C         -4.43706       -1.62034       -1.02075
H         -5.37850       -1.96184       -0.56276
H         -4.61892       -0.62594       -1.44666
H         -4.20476       -2.29501       -1.85865
