36
TwoHchromene_H8_Int1_Sub22.log	Energy: -656736.3503733
C          0.08417       -1.57479       -0.48420
C         -0.29344       -1.25503       -1.81505
C          1.41690       -1.32128       -0.06739
C          0.65148       -0.69867       -2.70576
H         -1.27639       -1.56722       -2.17347
C          2.34462       -0.76327       -0.95141
O          1.75572       -1.67835        1.17443
C          1.94001       -0.46286       -2.26847
H          0.35864       -0.46697       -3.73068
C          3.70271       -0.58434       -0.46023
C          2.81876       -0.95488        1.80716
H          2.67828       -0.03375       -2.95100
C          3.95259       -0.71509        0.84994
H          4.49850       -0.36329       -1.17607
C          2.27795        0.34045        2.39415
H          3.14545       -1.62296        2.61816
H          4.95937       -0.59888        1.25865
O         -2.67928       -0.59442       -0.32759
C         -2.97448       -1.14570        0.82105
O         -2.20804       -1.22431        1.76320
C         -4.38847       -1.67559        0.86323
H         -4.61103       -2.26003       -0.04022
H         -4.52712       -2.28672        1.76291
H         -5.08858       -0.82701        0.88482
H         -0.55299       -2.15786        0.18399
Pd        -0.96647        0.37179       -0.37259
O         -1.44207        2.33752        0.27115
C         -0.23589        2.65918        0.09376
O          0.55355        1.76605       -0.35951
C          0.27089        4.01745        0.43731
H         -0.52110        4.76381        0.29727
H          0.56254        4.02187        1.49917
H          1.15381        4.26028       -0.16698
H          3.06976        0.86562        2.94919
H          1.44322        0.12778        3.07825
H          1.91927        0.99746        1.58724
