49
TwoHchromene_H8_Int1_Sub3.log	Energy: -779234.8833904
C          0.05902       -0.88003        0.99443
C         -0.85514       -1.20574       -0.05337
C          1.36442       -1.44136        1.00374
C         -0.40806       -2.05606       -1.08414
C         -2.30003       -0.79246        0.06690
C          1.78724       -2.27901       -0.03438
O          2.14011       -1.18318        2.05849
C          0.87573       -2.57613       -1.06101
H         -1.08368       -2.31749       -1.89959
C          3.12752       -2.83891        0.06650
C          3.54743       -1.21303        1.85421
H          1.20158       -3.24216       -1.86441
C          3.97501       -2.35539        0.98501
H          3.41207       -3.65430       -0.60318
H          3.85759       -0.24264        1.41471
H          3.99002       -1.27438        2.85770
H          4.98949       -2.74558        1.09733
O         -0.82020        1.79653        0.97554
C         -0.15063        2.45723        1.88463
O          1.05929        2.40396        2.00630
C         -1.03399        3.30526        2.76756
H         -1.87848        2.71338        3.14795
H         -0.44601        3.71339        3.59809
H         -1.45405        4.13072        2.17360
H         -0.30018       -0.41212        1.91312
Pd         0.38455        0.85925       -0.27810
O          1.04155        2.36672       -1.62866
C          1.71303        1.48841       -2.23324
O          1.64223        0.29056       -1.80432
C          2.59263        1.83007       -3.38735
H          2.21936        2.72760       -3.89586
H          3.60376        2.04139       -3.00642
H          2.65693        0.98208       -4.08103
H         -2.34156       -0.00092        0.83325
C         -3.15655       -1.96977        0.55615
H         -2.74198       -2.36708        1.49699
H         -3.09629       -2.79020       -0.18167
C         -4.61088       -1.55259        0.74433
H         -5.21288       -2.41811        1.06536
H         -4.66918       -0.81218        1.56226
C         -5.18817       -0.94085       -0.52752
H         -6.22490       -0.60876       -0.35644
H         -5.23660       -1.71750       -1.31267
C         -4.33188        0.21924       -1.02354
H         -4.36909        1.04340       -0.28912
H         -4.73848        0.62401       -1.96419
C         -2.87997       -0.20038       -1.21947
H         -2.82393       -0.94523       -2.03351
H         -2.26693        0.65952       -1.53493
