33
TwoHchromene_H8_Int1_Sub18.log	Energy: -920408.1826363
C         -0.24752       -1.66532       -0.02034
C         -0.77900       -1.70803       -1.33362
C          1.14476       -1.47623        0.13694
C          0.08421       -1.59264       -2.45443
H         -1.82525       -1.98675       -1.47497
C          1.98909       -1.33751       -0.96129
O          1.62766       -1.46623        1.39737
C          1.43462       -1.40911       -2.26107
H         -0.33090       -1.65091       -3.46171
C          3.39792       -1.13362       -0.69423
C          2.80524       -0.79290        1.65237
H          2.10434       -1.30457       -3.11814
C          3.80601       -0.88723        0.56162
H          4.10826       -1.17203       -1.52347
Cl         2.45034        0.99708        1.97165
H          3.16962       -1.15098        2.62109
H          4.85015       -0.69485        0.81402
O         -2.91852       -0.16696       -0.05360
C         -3.22537       -0.63388        1.12669
O         -2.42561       -0.98302        1.97605
C         -4.72012       -0.69073        1.34646
H         -5.22681       -1.11949        0.47104
H         -4.93925       -1.27582        2.24746
H         -5.09951        0.33427        1.47439
H         -0.85592       -1.87604        0.86573
Pd        -1.06976        0.35686       -0.47927
O         -1.05177        2.46895       -0.24512
C          0.14943        2.46486       -0.63129
O          0.64328        1.34592       -0.99248
C          0.98767        3.69385       -0.64922
H          0.39078        4.57325       -0.38139
H          1.80949        3.55903        0.06974
H          1.43612        3.82050       -1.64472
