45
TwoHchromene_H8_Int1_Sub20.log	Energy: -730686.3779935
C         -0.36873       -0.03684        1.83783
C         -1.25142       -1.11721        2.10830
C          0.97902       -0.31042        1.48343
C         -0.79138       -2.44313        2.00824
H         -2.24457       -0.89942        2.50746
C          1.41433       -1.63097        1.34120
O          1.78871        0.73490        1.34486
C          0.51726       -2.67825        1.61999
H         -1.46527       -3.27274        2.22511
C          2.80245       -1.82569        0.95520
C          3.03389        0.63198        0.64037
H          0.87859       -3.70521        1.52129
C          3.56302       -0.77071        0.63392
H          3.20928       -2.83996        0.94430
C          2.89181        1.28976       -0.75716
H          3.72868        1.26540        1.22011
H          4.61131       -0.90100        0.35859
O         -2.61389        1.19324        0.61956
C         -2.10502        2.36832        0.36539
O         -0.98984        2.54384       -0.09581
C         -3.04648        3.50304        0.68821
H         -3.52092        3.34997        1.66722
H         -2.50125        4.45407        0.66610
H         -3.84822        3.52553       -0.06525
H         -0.61992        0.98967        2.10501
Pd        -1.48944       -0.28521       -0.03939
O         -2.05926       -0.52590       -2.06670
C         -1.23581       -1.47831       -2.15817
O         -0.58235       -1.79367       -1.11212
C         -1.04303       -2.22053       -3.43585
H         -0.99164       -1.51009       -4.27183
H         -0.13514       -2.83375       -3.39030
H         -1.91402       -2.87196       -3.60404
C          1.80072        0.58972       -1.56637
H          1.80170        0.96515       -2.60148
H          1.94194       -0.50177       -1.59767
H          0.80909        0.80870       -1.14380
C          2.51032        2.75823       -0.55980
H          3.27739        3.29494        0.02242
H          2.41758        3.25764       -1.53656
H          1.54164        2.84863       -0.04866
C          4.23652        1.19425       -1.48028
H          4.19913        1.77816       -2.41227
H          5.05849        1.60169       -0.86813
H          4.48872        0.15740       -1.75064
