49
TwoHchromene_H8_deriv1_Int1_Sub19.log	Energy: -1067559.7473871
C          1.10358       -0.15097       -1.64583
C          0.52969       -1.43328       -1.48348
C          0.24739        0.97116       -1.55815
C         -0.85991       -1.56716       -1.24488
H          1.13615       -2.31890       -1.68387
C         -1.11657        0.84289       -1.31172
O          0.81998        2.17916       -1.75360
C         -1.68113       -0.46013       -1.13691
H         -1.27185       -2.56927       -1.13059
C         -1.87915        2.07702       -1.25765
C          0.23636        3.29006       -1.18331
C         -3.13726       -0.58700       -0.76473
C         -1.24363        3.25997       -1.21208
H         -2.96927        2.04128       -1.25470
Cl         0.79449        3.46745        0.57585
H          0.67514        4.16538       -1.67366
H         -1.77709        4.20978       -1.14808
O          3.04492       -1.84945       -0.01922
C          4.07172       -1.30586       -0.61526
O          4.09468       -0.19089       -1.10389
C          5.27324       -2.22405       -0.63035
H          4.98203       -3.24242       -0.92198
H          6.03341       -1.82674       -1.31336
H          5.68954       -2.28145        0.38668
H          2.14362        0.00082       -1.95148
Pd         1.46978       -0.77097        0.45845
O          1.70754       -0.36440        2.53787
C          0.59124        0.22124        2.51266
O         -0.05660        0.20172        1.41446
C          0.03730        0.94053        3.69205
H          0.66386        0.77629        4.57627
H         -0.00247        2.01343        3.45109
H         -0.99252        0.60518        3.87964
H         -3.70336        0.14156       -1.37431
C         -3.34642       -0.20713        0.71217
H         -2.89879        0.77682        0.91972
H         -2.77897       -0.92376        1.33088
C         -4.82188       -0.22995        1.09086
H         -4.93966        0.01043        2.15987
H         -5.35089        0.56661        0.53595
C         -5.46521       -1.57499        0.77267
H         -6.54230       -1.55172        1.00383
H         -5.02392       -2.34944        1.42582
C         -5.24142       -1.96697       -0.68382
H         -5.78055       -1.26032       -1.34060
H         -5.66944       -2.96204       -0.88469
C         -3.75906       -1.95502       -1.04220
H         -3.24565       -2.72262       -0.43704
H         -3.61070       -2.23245       -2.09849
