49
TwoHchromene_H8_Int1_Sub27.log	Energy: -779234.5403372
C          0.59411        0.10494       -1.54201
C          1.76850       -0.44559       -2.11866
C         -0.42504       -0.77432       -1.09397
C          1.90247       -1.84481       -2.25581
H          2.50143        0.22697       -2.56856
C         -0.29027       -2.15755       -1.23620
O         -1.52824       -0.22912       -0.57492
C          0.88341       -2.67167       -1.82400
H          2.80256       -2.26032       -2.71099
C         -1.41661       -2.97737       -0.81300
C         -2.26406       -1.00023        0.38030
H          0.97560       -3.75531       -1.93479
C         -2.38708       -2.42826       -0.06980
H         -1.45309       -4.02541       -1.12102
H         -1.68653       -0.97366        1.32972
C         -3.59254       -0.29207        0.60747
H         -3.25040       -3.00714        0.26821
O          2.84178        1.79984       -0.63243
C          2.11360        2.86985       -0.45097
O          0.96810        2.86637       -0.03808
C          2.85399        4.13881       -0.80479
H          3.35431        4.03794       -1.77785
H          2.15527        4.98370       -0.81504
H          3.63631        4.31856       -0.05223
H          0.37000        1.17400       -1.56384
Pd         2.10626        0.11548        0.07302
O          2.91833       -0.03723        2.02413
C          2.33232       -1.14777        2.15126
O          1.65708       -1.57621        1.15992
C          2.39161       -1.92011        3.42427
H          3.35877       -1.76033        3.91754
H          1.60064       -1.55081        4.09531
H          2.21792       -2.98631        3.23291
H         -4.13894       -0.91405        1.34282
C         -4.42993       -0.21115       -0.66902
H         -4.60675       -1.22198       -1.07319
H         -3.84323        0.32791       -1.43221
C         -5.75278        0.50904       -0.43367
H         -6.31498        0.58349       -1.37853
H         -6.37828       -0.09130        0.25230
C         -5.53555        1.89240        0.16946
H         -6.50272        2.38426        0.36246
H         -5.00301        2.52644       -0.56206
C         -4.71327        1.81137        1.45079
H         -5.29387        1.26859        2.21939
H         -4.53007        2.81935        1.85589
C         -3.38849        1.09445        1.21885
H         -2.75483        1.68899        0.53943
H         -2.82657        1.00545        2.16358
