38
TwoHchromene_H8_deriv1_Int1_Sub15.log	Energy: -979773.3522717
C          0.04061        0.97462       -1.35193
C         -0.95143        1.44466       -0.44117
C          1.37713        1.12040       -1.04642
C         -0.55854        2.17188        0.73588
H         -1.96332        1.55536       -0.83132
C          1.77182        1.78036        0.13856
O          2.31113        0.65952       -1.92844
C          0.81461        2.30619        1.00297
N         -1.49357        2.70432        1.55677
C          3.19481        1.85506        0.40776
C          3.54774        0.30662       -1.45982
H          1.14347        2.81544        1.91237
C          4.05266        1.15347       -0.34976
H          3.54596        2.46067        1.24651
Cl         3.55900       -1.45796       -0.86956
H          4.22213        0.27384       -2.32296
H          5.12645        1.13696       -0.15379
O         -2.89343       -0.74293       -0.21801
C         -3.24742       -0.64461       -1.46727
O         -2.53183       -0.26397       -2.37821
C         -4.68157       -1.07045       -1.69452
H         -5.34479       -0.61933       -0.94345
H         -4.99705       -0.79230       -2.70716
H         -4.75249       -2.16219       -1.57631
H         -0.29269        0.50816       -2.28029
Pd        -1.00943       -0.56424        0.34667
O         -0.55921       -2.46300        1.25494
C          0.57528       -2.00209        1.54546
O          0.81550       -0.78671        1.23947
C          1.62150       -2.81375        2.22885
H          1.34868       -3.87560        2.22408
H          2.58373       -2.65230        1.72325
H          1.72470       -2.46708        3.26823
H         -1.16487        3.10327        2.42432
C         -2.90235        2.44514        1.42235
H         -3.42407        2.82779        2.30822
H         -3.10703        1.36341        1.32605
H         -3.32950        2.94580        0.53680
