42
TwoHchromene_H8_deriv1_Int1_Sub5.log	Energy: -994360.5251515
C          0.50541        1.04087        0.91042
C          1.27444        1.60371       -0.14589
C         -0.89104        1.28392        0.96587
C          0.59963        2.38032       -1.12517
C          2.78689        1.60858       -0.06896
C         -1.53504        2.05144       -0.00042
O         -1.56867        0.76558        2.00827
C         -0.75706        2.60120       -1.04228
H          1.17186        2.82341       -1.94143
C         -2.96491        2.23218        0.13601
C         -2.91227        0.48600        1.83975
H         -1.25873        3.20431       -1.80313
C         -3.64081        1.49800        1.03543
H         -3.47392        2.95713       -0.50359
Cl        -3.11051       -1.16327        1.02645
H         -3.32642        0.32850        2.84103
H         -4.72248        1.56717        1.16151
O          2.17826       -1.33742        0.35166
C          2.03344       -1.86098        1.54098
O          1.02628       -1.77185        2.21724
C          3.26822       -2.60272        1.99873
H          4.17020       -1.99725        1.83220
H          3.17011       -2.86594        3.05857
H          3.37692       -3.52030        1.40130
H          0.97112        0.57822        1.78360
Pd         0.55875       -0.63102       -0.51964
O         -0.13993       -2.27158       -1.66174
C         -1.08681       -1.54399       -2.07091
O         -1.07863       -0.31990       -1.71858
C         -2.20373       -2.08333       -2.89313
H         -1.95095       -3.07438       -3.28780
H         -3.09146       -2.15895       -2.24654
H         -2.44158       -1.38572       -3.70751
H          3.06706        0.82377        0.64814
C          3.45528        1.27056       -1.39605
H          4.54837        1.24641       -1.27275
H          3.13469        0.28220       -1.75643
H          3.23082        2.01551       -2.17587
C          3.25522        2.95813        0.48005
H          2.78716        3.18214        1.45051
H          4.34698        2.95485        0.62137
H          3.00660        3.77944       -0.21086
