33
TwoHchromene_H8_deriv1_Int1_Sub18.log	Energy: -1208728.5358063
C          0.34285       -0.71691       -1.44871
C          0.48890       -1.95733       -0.78218
C         -0.93292       -0.10450       -1.44834
C         -0.62162       -2.56957       -0.15376
H          1.42500       -2.51064       -0.88074
C         -2.03199       -0.67974       -0.81507
O         -1.04866        1.06012       -2.11566
C         -1.84283       -1.93118       -0.17074
H         -0.51551       -3.53241        0.34551
C         -3.28665        0.04048       -0.86991
C         -2.03599        1.95188       -1.74052
Cl        -3.18486       -2.66721        0.63015
C         -3.30378        1.30197       -1.33028
H         -4.19473       -0.45510       -0.52403
Cl        -1.43183        3.00636       -0.34877
H         -2.14725        2.66161       -2.56707
H         -4.21677        1.89849       -1.36681
O          3.03353       -0.68647       -0.01019
C          3.59018       -0.05855       -1.01077
O          3.00717        0.65619       -1.80614
C          5.07987       -0.30527       -1.08124
H          5.30584       -1.37118       -0.94131
H          5.46862        0.05191       -2.04218
H          5.56924        0.24305       -0.26220
H          1.14089       -0.27476       -2.05506
Pd         1.19399       -0.27251        0.55312
O          1.42694        0.95761        2.27165
C          0.17122        0.96221        2.39283
O         -0.49710        0.25439        1.56806
C         -0.53108        1.76957        3.42572
H          0.18967        2.25544        4.09340
H         -1.14341        2.52604        2.91260
H         -1.21306        1.12424        3.99722
