37
TwoHchromene_H8_deriv1_Int1_Sub16.log	Energy: -992225.5060356
C         -0.01693        0.96983       -1.32145
C         -0.98091        1.48268       -0.40947
C          1.33437        1.10763       -1.04174
C         -0.54557        2.19035        0.75299
H         -2.00479        1.57622       -0.77096
C          1.76042        1.78074        0.11711
O          2.23579        0.61876       -1.93627
C          0.81777        2.32282        0.99880
O         -1.39003        2.73124        1.63373
C          3.18924        1.85738        0.34864
C          3.48859        0.27299       -1.49690
H          1.14067        2.84019        1.90355
C          4.02577        1.14273       -0.42104
H          3.56234        2.47940        1.16536
Cl         3.50804       -1.47888       -0.87555
H          4.13489        0.22132       -2.38015
H          5.10501        1.13172       -0.25777
O         -2.86290       -0.78131       -0.22090
C         -3.25014       -0.64329       -1.45721
O         -2.56929       -0.19941       -2.36577
C         -4.67290       -1.11027       -1.66887
H         -5.33023       -0.72990       -0.87497
H         -5.02738       -0.78757       -2.65500
H         -4.69826       -2.20900       -1.61333
H         -0.37123        0.51030       -2.24576
Pd        -0.98566       -0.56898        0.33881
O         -0.54880       -2.44564        1.26203
C          0.58376       -1.98552        1.56753
O          0.82720       -0.77434        1.24759
C          1.61431       -2.79015        2.27843
H          1.33567       -3.85043        2.28702
H          2.58457       -2.64187        1.78436
H          1.70362       -2.42600        3.31308
C         -2.77247        2.50747        1.47557
H         -3.16544        3.01955        0.58120
H         -2.99649        1.42956        1.39828
H         -3.25685        2.92402        2.36655
