42
TwoHchromene_H8_deriv1_Int1_Sub29.log	Energy: -994361.3864773
C         -0.33752        0.81275        1.37463
C         -1.25921        0.13337        2.21035
C          0.94009        0.24114        1.17491
C         -0.88015       -1.07598        2.84860
H         -2.19551        0.62599        2.48056
C          1.30320       -0.95885        1.77828
O          1.80327        0.92493        0.39819
C          0.37279       -1.60243        2.62777
H         -1.58678       -1.58027        3.50945
C          2.62592       -1.47100        1.48841
C          2.83184        0.25970       -0.24902
H          0.66634       -2.54179        3.10263
C          3.36524       -0.89289        0.52834
H          2.99365       -2.33975        2.03939
Cl         2.12995       -0.49845       -1.81904
C          3.88128        1.29425       -0.66052
H          4.34945       -1.26900        0.24294
O         -3.09309        1.06027        0.11163
C         -2.83279        2.26913       -0.30701
O         -1.72364        2.70281       -0.56238
C         -4.08518        3.10273       -0.45829
H         -4.73955        2.98545        0.41635
H         -3.81383        4.15528       -0.60215
H         -4.64527        2.74610       -1.33583
H         -0.53536        1.80917        0.96651
Pd        -1.71026       -0.33994        0.05141
O         -2.12289       -1.41855       -1.73151
C         -1.17934       -2.20156       -1.43256
O         -0.59462       -2.01264       -0.31557
C         -0.72672       -3.28953       -2.34096
H         -1.40067       -3.38130       -3.20051
H          0.29099       -3.04864       -2.68302
H         -0.67413       -4.23710       -1.78680
H          4.61889        0.73346       -1.25926
C          3.29635        2.41224       -1.51239
H          4.09190        3.11143       -1.80866
H          2.82348        2.01709       -2.42077
H          2.53609        2.97366       -0.95012
C          4.56780        1.84922        0.58544
H          5.02977        1.05865        1.19564
H          5.35610        2.55952        0.29624
H          3.84329        2.38471        1.21742
