36
TwoHchromene_H8_Int1_Sub6.log	Energy: -656734.6176063
C          0.28447       -1.41502       -0.74558
C          0.22702       -0.82990       -2.04763
C          1.45748       -1.27735        0.04434
C          1.33074       -0.07506       -2.48701
C         -0.90792       -1.15999       -2.96850
C          2.54456       -0.52336       -0.41535
O          1.49891       -1.93115        1.20641
C          2.45592        0.06117       -1.68828
H          1.29834        0.39230       -3.47299
C          3.71701       -0.45365        0.44517
C          2.31816       -1.38370        2.23228
H          3.30742        0.64269       -2.05137
C          3.63068       -0.88553        1.71072
H          4.65059       -0.05921        0.03640
H          1.75465       -0.56874        2.73149
H          2.44874       -2.18973        2.96699
H          4.48420       -0.85173        2.39217
O         -2.38198       -0.67424       -0.24127
C         -2.71866       -1.10288        0.94847
O         -2.03789       -0.93962        1.94389
C         -4.04908       -1.81602        0.96403
H         -4.08849       -2.57379        0.16879
H         -4.20974       -2.27971        1.94446
H         -4.85132       -1.09007        0.76403
H         -0.44414       -2.17060       -0.44596
Pd        -0.74473        0.42760       -0.18872
O         -1.38903        2.32945        0.50768
C         -0.20025        2.73543        0.40878
O          0.66932        1.91585       -0.03404
C          0.19588        4.11038        0.82697
H         -0.65682        4.79464        0.73617
H          0.50548        4.07972        1.88309
H          1.04698        4.45983        0.22878
H         -1.07343       -0.35541       -3.69843
H         -1.83516       -1.32971       -2.40446
H         -0.67033       -2.07929       -3.52987
