42
TwoHchromene_H8_Int1_Sub29.log	Energy: -706034.1406617
C          0.27790       -0.31079        1.59379
C          1.16650        0.67549        2.09562
C         -1.05693        0.06250        1.29213
C          0.71353        1.99677        2.30890
H          2.15786        0.36967        2.43563
C         -1.50171        1.36882        1.51019
O         -1.88197       -0.88309        0.83284
C         -0.59843        2.32164        2.02460
H          1.39947        2.74559        2.70743
C         -2.91038        1.62845        1.25264
C         -2.92366       -0.45247       -0.04819
H         -0.95928        3.33891        2.19761
C         -3.62141        0.74394        0.53857
H         -3.36800        2.52970        1.66870
H         -2.43627       -0.15315       -1.00307
C         -3.81265       -1.66194       -0.32548
H         -4.68465        0.89534        0.34305
O          2.91935       -0.86597        0.38216
C          2.69528       -2.13888        0.18735
O          1.61919       -2.61096       -0.13172
C          3.93234       -2.98162        0.39380
H          4.44126       -2.70255        1.32677
H          3.65847       -4.04323        0.40526
H          4.63559       -2.79304       -0.43119
H          0.52875       -1.37374        1.56794
Pd         1.47102        0.35740       -0.14724
O          1.92121        0.87069       -2.15310
C          0.91109        1.62725       -2.15754
O          0.23327        1.71379       -1.08253
C          0.49571        2.36766       -3.38217
H          1.37720        2.63577       -3.97822
H         -0.14124        1.70761       -3.99126
H         -0.08358        3.25921       -3.11165
H         -4.30078       -1.92415        0.63086
C         -4.88751       -1.32025       -1.35133
H         -5.50735       -2.20448       -1.56062
H         -5.56392       -0.51960       -1.01772
H         -4.43336       -1.00314       -2.30476
C         -2.97739       -2.84970       -0.78962
H         -2.20792       -3.11629       -0.05399
H         -3.61764       -3.72798       -0.96099
H         -2.46380       -2.61772       -1.73727
