36
TwoHchromene_H8_deriv1_Int1_Sub25.log	Energy: -1131798.8094801
C         -0.56406        0.86802        1.33564
C         -1.53884        0.24005        2.15025
C          0.71018        0.26640        1.23461
C         -1.21699       -0.94590        2.86102
H         -2.47949        0.75787        2.34828
C          1.02055       -0.90910        1.90828
O          1.62687        0.89673        0.46554
C          0.03561       -1.50150        2.73359
H         -1.96741       -1.40746        3.50453
C          2.34752       -1.45522        1.71625
C          2.66620        0.17540       -0.07612
H          0.28732       -2.42249        3.26474
C          3.15583       -0.93750        0.77889
H          2.66973       -2.29960        2.32986
Cl         2.14753       -0.53233       -1.69737
C          3.76881        1.20460       -0.39175
H          4.15119       -1.32904        0.56654
O         -3.30513        1.03395       -0.04004
C         -3.04347        2.24333       -0.46000
O         -1.92872        2.69411       -0.65183
C         -4.29940        3.04892       -0.69936
H         -5.00649        2.92586        0.13232
H         -4.03985        4.10531       -0.83618
H         -4.79396        2.67315       -1.60774
H         -0.73019        1.84595        0.87060
Pd        -1.89056       -0.33171       -0.00111
O         -2.22621       -1.47271       -1.75863
C         -1.27879       -2.22902       -1.40903
O         -0.72222       -1.98740       -0.28690
C         -0.79502       -3.34840       -2.26127
H         -1.42739       -3.45872       -3.14968
H          0.24226       -3.13463       -2.55915
H         -0.78558       -4.27932       -1.67691
F          4.81189        0.60277       -0.95589
F          4.17934        1.75981        0.74640
F          3.33900        2.15894       -1.19409
