36
TwoHchromene_H8_deriv1_Int1_Sub22.log	Energy: -945061.0825993
C          0.28257       -1.23596       -1.08025
C          0.61180       -2.14556       -0.04750
C         -1.06407       -0.81696       -1.18897
C         -0.39531       -2.62366        0.82632
H          1.61039       -2.58653       -0.02272
C         -2.04944       -1.26849       -0.31653
O         -1.35437        0.02836       -2.20141
C         -1.70412       -2.19458        0.71325
H         -0.12518       -3.33614        1.60809
C         -3.38871       -0.75203       -0.52208
C         -2.43476        0.87535       -2.07268
C         -2.75111       -2.66924        1.67286
C         -3.59105        0.26652       -1.37494
H         -4.22638       -1.18910        0.02343
Cl        -1.93203        2.40744       -1.15797
H         -2.66510        1.24919       -3.07593
H         -4.57587        0.70659       -1.54024
O          2.97965       -0.40588        0.06069
C          3.41443       -0.06262       -1.12175
O          2.71715        0.30413       -2.05011
C          4.92000       -0.15881       -1.22517
H          5.28114       -1.10163       -0.79204
H          5.22476       -0.07157       -2.27480
H          5.36904        0.66104       -0.64451
H          0.99257       -0.93738       -1.85818
Pd         1.12109       -0.04087        0.59516
O          1.24093        1.72923        1.77032
C          0.00094        1.63057        1.97916
O         -0.59328        0.60579        1.50709
C         -0.76960        2.66873        2.71626
H         -0.09637        3.42343        3.13888
H         -1.47007        3.13996        2.01053
H         -1.36598        2.19512        3.50865
H         -3.16626       -1.82479        2.24558
H         -2.33223       -3.38928        2.38777
H         -3.59029       -3.15791        1.15292
