36
TwoHchromene_H8_deriv1_Int1_Sub17.log	Energy: -1131801.3773304
C          0.53429       -0.41561       -1.57431
C          0.39626       -1.73250       -1.07880
C         -0.58053        0.45205       -1.50745
C         -0.84903       -2.16041       -0.55029
H          1.19357       -2.45871       -1.24822
C         -1.80199        0.04746       -0.97497
O         -0.40926        1.69104       -2.00989
C         -1.91236       -1.28830       -0.49496
H         -0.95943       -3.17963       -0.18129
C         -2.86908        1.03207       -0.95567
C         -1.19111        2.72002       -1.52195
C         -3.21266       -1.74783        0.11376
C         -2.58626        2.31621       -1.22912
H         -3.88676        0.72703       -0.71401
Cl        -0.43519        3.41010        0.01626
H         -1.10823        3.54449       -2.23793
H         -3.34685        3.09815       -1.19848
O          3.08970       -1.20742       -0.05706
C          3.82313       -0.57851       -0.93637
O          3.44902        0.35347       -1.62533
C          5.22794       -1.13058       -1.00814
H          5.21618       -2.22894       -1.01888
H          5.73410       -0.73782       -1.89788
H          5.77748       -0.81782       -0.10748
H          1.43805       -0.07396       -2.09044
Pd         1.35332       -0.47436        0.50686
O          1.75734        0.48300        2.35742
C          0.52566        0.74111        2.45257
O         -0.23538        0.28503        1.53528
C         -0.04037        1.55937        3.55683
H          0.73157        1.79682        4.29779
H         -0.44815        2.48470        3.12317
H         -0.87452        1.01857        4.02569
F         -3.55204       -0.99666        1.16482
F         -3.15253       -3.01242        0.52580
F         -4.21946       -1.66341       -0.76774
