36
TwoHchromene_H8_deriv1_Int1_Sub9.log	Energy: -1131803.9045683
C          0.15882        0.02574       -1.54475
C          1.29330       -0.64381       -1.03211
C         -1.10655       -0.60119       -1.43312
C          1.14601       -1.93247       -0.44679
H          2.29130       -0.25224       -1.24043
C         -1.24850       -1.85577       -0.84789
O         -2.16305        0.05450       -1.94686
C         -0.09680       -2.51528       -0.36188
C          2.36558       -2.60991        0.10722
C         -2.58339       -2.41383       -0.78202
C         -3.42312       -0.21488       -1.44090
H         -0.20431       -3.49943        0.09771
C         -3.63796       -1.63940       -1.08506
H         -2.71171       -3.45511       -0.47782
Cl        -3.72569        0.81941        0.05706
H         -4.14184        0.17328       -2.17031
H         -4.66707       -1.99762       -1.02627
O          1.98118        2.07699       -0.19797
C          1.71525        2.95298       -1.12980
O          0.70252        2.97454       -1.80617
C          2.81889        3.97347       -1.28377
H          3.80183        3.48326       -1.30271
H          2.65757        4.55693       -2.19785
H          2.80553        4.64526       -0.41238
H          0.23884        0.95737       -2.11604
Pd         0.59187        0.85784        0.47282
O         -0.03571        1.72806        2.30480
C         -0.79201        0.73342        2.47790
O         -0.74453       -0.19415        1.60234
C         -1.72599        0.62843        3.63018
H         -1.60381        1.48300        4.30550
H         -2.75394        0.59493        3.23981
H         -1.54376       -0.31390        4.16615
F          2.12576       -3.88130        0.43238
F          2.80563       -1.98995        1.20843
F          3.37058       -2.59661       -0.77389
