49
TwoHchromene_H8_Int1_Sub11.log	Energy: -779233.0101303
C         -1.13424        1.13012        1.17092
C         -0.59124        0.03016        1.87912
C         -0.25472        1.92892        0.39556
C          0.78476       -0.26409        1.78991
H         -1.22547       -0.51382        2.58175
C          1.10982        1.64015        0.31823
O         -0.78925        2.99181       -0.22121
C          1.63296        0.50929        1.01152
H          1.17057       -1.12095        2.34069
C          1.92396        2.58185       -0.44527
C         -0.15465        3.42552       -1.41353
C          3.08519        0.14270        0.82921
C          1.33245        3.46631       -1.26035
H          3.00825        2.57961       -0.32274
H         -0.44882        2.74834       -2.24242
H         -0.57387        4.41710       -1.63095
H          1.90868        4.19945       -1.82992
O         -3.13794       -1.05289        1.04419
C         -4.16747       -0.26298        0.88687
O         -4.15766        0.76553        0.23624
C         -5.39841       -0.77055        1.60201
H         -5.15532       -1.06148        2.63337
H         -6.17634        0.00203        1.59178
H         -5.76727       -1.67024        1.08708
H         -2.15338        1.49213        1.32338
Pd        -1.56023       -0.65655       -0.06371
O         -1.78831       -1.88734       -1.78237
C         -0.67891       -1.45909       -2.20188
O         -0.05106       -0.62525       -1.47136
C         -0.12612       -1.87996       -3.52083
H         -0.44759       -2.90218       -3.75698
H         -0.52231       -1.20797       -4.29786
H          0.96836       -1.80120       -3.51855
H          3.67402        1.07760        0.87069
C          3.30774       -0.47234       -0.56384
H          2.89910        0.19284       -1.33995
H          2.71360       -1.40075       -0.62544
C          4.78104       -0.76636       -0.81757
H          4.90614       -1.23989       -1.80489
H          5.33786        0.18772       -0.86053
C          5.37811       -1.64600        0.27516
H          6.45503       -1.80073        0.10032
H          4.90920       -2.64569        0.23048
C          5.14288       -1.04855        1.65814
H          5.70573       -0.10175        1.74865
H          5.53825       -1.71798        2.43880
C          3.66206       -0.77872        1.90289
H          3.12306       -1.74226        1.89005
H          3.50552       -0.34164        2.90246
