45
TwoHchromene_H8_deriv1_Int1_Sub28.log	Energy: -1019010.2987996
C         -0.56359        0.72552        1.44438
C         -1.55480        0.03990        2.19056
C          0.70120        0.11427        1.28204
C         -1.25632       -1.21525        2.78135
H         -2.48644        0.55411        2.43552
C          0.98591       -1.12838        1.83804
O          1.63040        0.80317        0.59328
C         -0.01295       -1.77851        2.60024
H         -2.01686       -1.72529        3.37446
C          2.30406       -1.67066        1.59056
C          2.67103        0.13973       -0.03872
H          0.21929       -2.75199        3.03892
C          3.11671       -1.07198        0.70442
H          2.61214       -2.58064        2.11081
Cl         1.99231       -0.51242       -1.67082
C          3.76817        1.18937       -0.33988
H          4.09610       -1.48148        0.45779
O         -3.20619        1.17141        0.03575
C         -2.85933        2.37775       -0.32346
O         -1.71634        2.75579       -0.50862
C         -4.05448        3.28646       -0.50214
H         -4.75659        3.17649        0.33565
H         -3.71832        4.32611       -0.59336
H         -4.58966        2.99337       -1.41791
H         -0.69826        1.74997        1.08353
Pd        -1.89537       -0.29699       -0.01592
O         -2.25294       -1.26965       -1.87039
C         -1.36803       -2.11297       -1.55647
O         -0.84376       -2.00716       -0.39934
C         -0.91278       -3.17751       -2.49102
H         -1.54281       -3.20064       -3.38768
H          0.13063       -2.96530       -2.76877
H         -0.92828       -4.15062       -1.98068
C          4.91612        0.57352       -1.13969
H          5.65109        1.35753       -1.37469
H          5.44842       -0.20986       -0.57925
H          4.55795        0.14398       -2.08536
C          3.17005        2.36147       -1.12083
H          2.33176        2.81948       -0.57909
H          3.94363        3.12802       -1.27713
H          2.80185        2.03441       -2.10270
C          4.29425        1.68985        1.01164
H          5.08009        2.44169        0.84492
H          3.49272        2.15675        1.60112
H          4.72860        0.87283        1.60861
