38
TwoHchromene_H8_deriv1_Int1_Sub31.log	Energy: -979772.4953636
C         -0.34789        0.71583        1.47407
C         -1.16226       -0.19185        2.19532
C          1.01333        0.39039        1.28284
C         -0.59671       -1.37779        2.73390
H         -2.17669        0.10552        2.46941
C          1.56268       -0.78739        1.77817
O          1.76936        1.29429        0.62419
C          0.73248       -1.66239        2.51964
H         -1.22410       -2.05901        3.31068
C          2.95850       -1.03949        1.49609
C          2.92132        0.89776        0.01679
H          1.16883       -2.58348        2.91308
C          3.61971       -0.23618        0.64567
H          3.44955       -1.90036        1.95467
Cl         2.24744        0.02258       -1.75362
N          3.68400        1.98088       -0.32554
H          4.65892       -0.40877        0.36162
O         -3.03389        0.66398        0.05287
C         -2.95932        1.94281       -0.19198
O         -1.93090        2.59282       -0.26375
C         -4.32299        2.56436       -0.39565
H         -5.02845        2.21661        0.37132
H         -4.23837        3.65743       -0.37930
H         -4.71642        2.24262       -1.37173
H         -0.70426        1.70010        1.15025
Pd        -1.45387       -0.51225       -0.01720
O         -1.58194       -1.45639       -1.91208
C         -0.55094       -2.11923       -1.60786
O         -0.09809       -1.97679       -0.42393
C          0.15109       -2.99739       -2.57905
H         -0.47374       -3.17816       -3.46146
H          1.07765       -2.48064       -2.87385
H          0.43273       -3.94250       -2.09535
H          4.56570        1.69487       -0.73591
C          3.05251        3.09217       -1.00596
H          3.80043        3.87793       -1.17173
H          2.24945        3.50181       -0.38069
H          2.61666        2.77644       -1.96978
