49
TwoHchromene_H8_deriv1_Int1_Sub3.log	Energy: -1067561.0227813
C         -0.18314       -0.82689        0.93815
C         -1.11371       -1.15353       -0.08737
C          1.10777       -1.41372        0.92404
C         -0.69838       -2.04922       -1.10865
C         -2.56573       -0.77216        0.05732
C          1.49692       -2.29260       -0.08266
O          1.93593       -1.11122        1.94271
C          0.56228       -2.60332       -1.09408
H         -1.39864       -2.31466       -1.90184
C          2.83973       -2.82922       -0.01668
C          3.29874       -1.17813        1.72118
H          0.86379       -3.29297       -1.88641
C          3.71480       -2.31505        0.86352
H          3.12364       -3.63936       -0.69256
Cl         3.88295        0.39352        0.93765
H          3.77668       -1.16350        2.70621
H          4.74837       -2.65710        0.93722
O         -1.24717        1.91473        0.46337
C         -0.98367        2.33164        1.67342
O         -0.03696        1.96414        2.34327
C         -2.00037        3.33516        2.16839
H         -3.02187        2.96225        2.00692
H         -1.83000        3.54157        3.23162
H         -1.89919        4.26602        1.59078
H         -0.47869       -0.28070        1.83711
Pd         0.12298        0.84508       -0.46452
O          1.17209        2.28599       -1.60809
C          1.89367        1.35498       -2.06190
O          1.59266        0.16401       -1.72476
C          3.08115        1.61726       -2.91948
H          3.07211        2.64946       -3.28869
H          3.98134        1.45145       -2.30793
H          3.10725        0.90277       -3.75335
H         -2.61473        0.01943        0.82068
C         -3.37923       -1.96997        0.56979
H         -2.93223       -2.35287        1.50169
H         -3.31831       -2.79184       -0.16633
C         -4.83820       -1.58714        0.79184
H         -5.41083       -2.46580        1.13018
H         -4.89439       -0.84586        1.60916
C         -5.46054       -0.99400       -0.46736
H         -6.50052       -0.68644       -0.27211
H         -5.50939       -1.77440       -1.24874
C         -4.64473        0.18439       -0.98772
H         -4.68355        1.01102       -0.25595
H         -5.08312        0.57603       -1.91950
C         -3.18735       -0.19789       -1.21672
H         -3.13070       -0.94222       -2.03123
H         -2.60659        0.67955       -1.54100
