45
TwoHchromene_H8_deriv1_Int1_Sub4.log	Energy: -1019006.9775112
C          0.71152        0.74395        1.03335
C          1.53069        1.48513        0.13379
C         -0.64226        1.12741        1.22759
C          0.92510        2.52957       -0.59432
C          3.04161        1.26285        0.01960
C         -1.21108        2.19288        0.52413
O         -1.34969        0.46475        2.15813
C         -0.39765        2.88021       -0.38962
H          1.51498        3.09236       -1.31823
C         -2.59585        2.51362        0.79892
C         -2.72472        0.40104        2.01017
H         -0.83204        3.70695       -0.95715
C         -3.33491        1.66909        1.53652
H         -3.01867        3.43599        0.39381
Cl        -3.17194       -0.93480        0.81913
H         -3.12134        0.04197        2.96537
H         -4.39097        1.83966        1.75160
O          1.49602       -1.95136        0.06195
C          1.14818       -2.58670        1.15162
O          0.19486       -2.29277        1.84560
C          2.09209       -3.72024        1.48250
H          3.08464       -3.31438        1.73108
H          1.70309       -4.28618        2.33718
H          2.21735       -4.37812        0.61125
H          1.12778        0.04138        1.75458
Pd         0.23700       -0.61828       -0.65343
O         -0.72167       -1.70841       -2.19209
C         -1.40053       -0.67943       -2.45902
O         -1.12406        0.38710       -1.81949
C         -2.51976       -0.70508       -3.43990
H         -2.42461       -1.56675       -4.11139
H         -3.46082       -0.79042       -2.87460
H         -2.54897        0.23494       -4.00647
C          3.37210        0.70630       -1.37298
H          4.46350        0.62737       -1.49727
H          2.93878       -0.29699       -1.50229
H          2.98545        1.35563       -2.17303
C          3.75036        2.61391        0.21513
H          3.48443        3.06629        1.18282
H          4.84035        2.46109        0.19932
H          3.50718        3.33669       -0.57667
C          3.56404        0.29482        1.08154
H          4.65483        0.19501        0.97748
H          3.35943        0.66044        2.09970
H          3.11965       -0.70067        0.95839
