36
TwoHchromene_H8_deriv1_Int1_Sub6.log	Energy: -945058.7271986
C         -0.36897       -1.55679        0.22786
C         -0.88692       -1.77996       -1.07761
C          1.03331       -1.46415        0.40963
C          0.02854       -1.87059       -2.16218
C         -2.32405       -2.16491       -1.28176
C          1.91930       -1.57016       -0.65688
O          1.47889       -1.29804        1.67290
C          1.38500       -1.77899       -1.94872
H         -0.35919       -2.04297       -3.16837
C          3.33196       -1.45036       -0.36663
C          2.70374       -0.69182        1.86683
H          2.07703       -1.85746       -2.79093
C          3.72542       -1.04573        0.85275
H          4.05890       -1.68227       -1.14871
Cl         2.48932        1.15376        1.87244
H          3.00377       -0.90821        2.89747
H          4.77461       -0.90810        1.11905
O         -2.70291        0.55177        0.25051
C         -3.21896       -0.05215        1.27861
O         -2.70581       -0.95140        1.92483
C         -4.59765        0.47855        1.60809
H         -5.24693        0.41290        0.72334
H         -5.02661       -0.09323        2.43926
H         -4.52547        1.54196        1.87867
H         -1.02805       -1.61873        1.10445
Pd        -0.85458        0.50335       -0.42109
O         -0.52253        2.58705       -0.65377
C          0.62562        2.32121       -1.10309
O          0.92269        1.09055       -1.25356
C          1.62652        3.37764       -1.41157
H          1.15833        4.36884       -1.40431
H          2.41341        3.33144       -0.64327
H          2.09706        3.17496       -2.38340
H         -2.81199       -1.52668       -2.03239
H         -2.88576       -2.10787       -0.34253
H         -2.36689       -3.20290       -1.64863
