36
TwoHchromene_H8_deriv1_Int1_Sub14.log	Energy: -945060.9369857
C         -0.24119        1.00764       -1.24567
C         -0.84311        1.92805       -0.35294
C          1.15929        0.83836       -1.19756
C         -0.05379        2.69896        0.55422
H         -1.90002        2.17337       -0.48389
C          1.93843        1.56356       -0.30330
O          1.71460       -0.03064       -2.07211
C          1.31083        2.49627        0.55673
C         -0.72233        3.68310        1.46389
C          3.36485        1.31307       -0.31325
C          2.91707       -0.61812       -1.74346
H          1.93959        3.06001        1.25122
C          3.85047        0.27535       -1.01510
H          4.02503        1.96594        0.26265
Cl         2.62126       -2.12815       -0.70467
H          3.33068       -1.03326       -2.66864
H          4.91160        0.02084       -1.03064
O         -2.89797       -0.13892       -0.18094
C         -3.16931       -0.65019       -1.35150
O         -2.34589       -0.96362       -2.19196
C         -4.65543       -0.83095       -1.56410
H         -5.20576        0.06776       -1.25351
H         -4.85275       -1.06233       -2.61751
H         -5.00591       -1.66276       -0.93466
H         -0.81349        0.50069       -2.02974
Pd        -1.05416       -0.12332        0.50921
O         -0.96672       -1.79150        1.82469
C          0.21521       -1.45586        2.11182
O          0.65944       -0.37904        1.59269
C          1.08770       -2.27647        2.99441
H          0.53049       -3.12423        3.40937
H          1.93813       -2.63644        2.39639
H          1.49234       -1.64877        3.80090
H         -1.43877        3.17739        2.13019
H         -1.28929        4.43321        0.88993
H          0.00820        4.21298        2.08983
